reduced_networks/ieee8500/41pct/dss/Transformers.dss
! Preserved physical transformers and solved regulator taps
new Transformer.hvmv_sub phases=3 windings=2 buses=[hvmv_sub_hsb, regxfmr_hvmv_sub_lsb.1.2.3.0, ] conns=[delta, wye, ] kvs=[115, 12.47, ] kvas=[27500, 27500, ] taps=[1, 1, ] %rs=[0.67202, 0.67202, ] xhl=15.51 xht=35 xlt=30 %noloadloss=0 %imag=0 ppm_antifloat=1 kvs=[115 12.47]
new Transformer.feeder_rega phases=1 windings=2 buses=[regxfmr_hvmv_sub_lsb.1, _hvmv_sub_lsb.1, ] conns=[wye, wye, ] kvs=[7.2, 7.2, ] kvas=[27500, 27500, ] taps=[1, 1.0125, ] %rs=[0.0005, 0.0005, ] xhl=0.1 xht=35 xlt=30 %noloadloss=0 %imag=0 ppm_antifloat=0 kvs=[7.2 7.2]
new Transformer.feeder_regb phases=1 windings=2 buses=[regxfmr_hvmv_sub_lsb.2, _hvmv_sub_lsb.2, ] conns=[wye, wye, ] kvs=[7.2, 7.2, ] kvas=[27500, 27500, ] taps=[1, 1.0125, ] %rs=[0.0005, 0.0005, ] xhl=0.1 xht=35 xlt=30 %noloadloss=0 %imag=0 ppm_antifloat=0 kvs=[7.2 7.2]
new Transformer.feeder_regc phases=1 windings=2 buses=[regxfmr_hvmv_sub_lsb.3, _hvmv_sub_lsb.3, ] conns=[wye, wye, ] kvs=[7.2, 7.2, ] kvas=[27500, 27500, ] taps=[1, 1.00625, ] %rs=[0.0005, 0.0005, ] xhl=0.1 xht=35 xlt=30 %noloadloss=0 %imag=0 ppm_antifloat=0 kvs=[7.2 7.2]
new Transformer.t21396254a phases=1 windings=3 buses=[l2804253.1, x2804253a.1.0, x2804253a.0.2, ] conns=[wye, wye, wye, ] kvs=[7.2, 0.12, 0.12, ] kvas=[15, 15, 15, ] taps=[1, 1, 1, ] %rs=[0.6, 1.2, 1.2, ] xhl=2.04 xht=2.04 xlt=1.36 %noloadloss=0.2 %imag=0.5 ppm_antifloat=1 kvs=[7.2 0.12 0.12]
new Transformer.t5321859b phases=1 windings=3 buses=[l3254213.2, x3254213b.1.0, x3254213b.0.2, ] conns=[wye, wye, wye, ] kvs=[7.2, 0.12, 0.12, ] kvas=[25, 25, 25, ] taps=[1, 1, 1, ] %rs=[0.6, 1.2, 1.2, ] xhl=2.04 xht=2.04 xlt=1.36 %noloadloss=0.2 %imag=0.5 ppm_antifloat=1 kvs=[7.2 0.12 0.12]
new Transformer.t5391741b phases=1 windings=3 buses=[l3216339.2, x3216339b.1.0, x3216339b.0.2, ] conns=[wye, wye, wye, ] kvs=[7.2, 0.12, 0.12, ] kvas=[25, 25, 25, ] taps=[1, 1, 1, ] %rs=[0.6, 1.2, 1.2, ] xhl=2.04 xht=2.04 xlt=1.36 %noloadloss=0.2 %imag=0.5 ppm_antifloat=1 kvs=[7.2 0.12 0.12]
new Transformer.t5293672a phases=1 windings=3 buses=[l2954355.1, x2954355a.1.0, x2954355a.0.2, ] conns=[wye, wye, wye, ] kvs=[7.2, 0.12, 0.12, ] kvas=[15, 15, 15, ] taps=[1, 1, 1, ] %rs=[0.6, 1.2, 1.2, ] xhl=2.04 xht=2.04 xlt=1.36 %noloadloss=0.2 %imag=0.5 ppm_antifloat=1 kvs=[7.2 0.12 0.12]
new Transformer.t21474711c phases=1 windings=3 buses=[l2861197.3, x2861197c.1.0, x2861197c.0.2, ] conns=[wye, wye, wye, ] kvs=[7.2, 0.12, 0.12, ] kvas=[15, 15, 15, ] taps=[1, 1, 1, ] %rs=[0.6, 1.2, 1.2, ] xhl=2.04 xht=2.04 xlt=1.36 %noloadloss=0.2 %imag=0.5 ppm_antifloat=1 kvs=[7.2 0.12 0.12]
new Transformer.t5260488a phases=1 windings=3 buses=[l2842379.1, x2842379a.1.0, x2842379a.0.2, ] conns=[wye, wye, wye, ] kvs=[7.2, 0.12, 0.12, ] kvas=[37.5, 37.5, 37.5, ] taps=[1, 1, 1, ] %rs=[0.6, 1.2, 1.2, ] xhl=2.04 xht=2.04 xlt=1.36 %noloadloss=0.2 %imag=0.5 ppm_antifloat=1 kvs=[7.2 0.12 0.12]
new Transformer.t5391758b phases=1 windings=3 buses=[l2841636.2, x2841636b.1.0, x2841636b.0.2, ] conns=[wye, wye, wye, ] kvs=[7.2, 0.12, 0.12, ] kvas=[15, 15, 15, ] taps=[1, 1, 1, ] %rs=[0.6, 1.2, 1.2, ] xhl=2.04 xht=2.04 xlt=1.36 %noloadloss=0.2 %imag=0.5 ppm_antifloat=1 kvs=[7.2 0.12 0.12]
new Transformer.t228091193a phases=1 windings=3 buses=[l3047289.1, x3047289a.1.0, x3047289a.0.2, ] conns=[wye, wye, wye, ] kvs=[7.2, 0.12, 0.12, ] kvas=[50, 50, 50, ] taps=[1, 1, 1, ] %rs=[0.6, 1.2, 1.2, ] xhl=2.04 xht=2.04 xlt=1.36 %noloadloss=0.2 %imag=0.5 ppm_antifloat=1 kvs=[7.2 0.12 0.12]
new Transformer.t228091193b phases=1 windings=3 buses=[l3047289.2, x3047289b.1.0, x3047289b.0.2, ] conns=[wye, wye, wye, ] kvs=[7.2, 0.12, 0.12, ] kvas=[50, 50, 50, ] taps=[1, 1, 1, ] %rs=[0.6, 1.2, 1.2, ] xhl=2.04 xht=2.04 xlt=1.36 %noloadloss=0.2 %imag=0.5 ppm_antifloat=1 kvs=[7.2 0.12 0.12]
new Transformer.t228091193c phases=1 windings=3 buses=[l3047289.3, x3047289c.1.0, x3047289c.0.2, ] conns=[wye, wye, wye, ] kvs=[7.2, 0.12, 0.12, ] kvas=[50, 50, 50, ] taps=[1, 1, 1, ] %rs=[0.6, 1.2, 1.2, ] xhl=2.04 xht=2.04 xlt=1.36 %noloadloss=0.2 %imag=0.5 ppm_antifloat=1 kvs=[7.2 0.12 0.12]
new Transformer.t5302862c phases=1 windings=3 buses=[l3085399.3, x3085399c.1.0, x3085399c.0.2, ] conns=[wye, wye, wye, ] kvs=[7.2, 0.12, 0.12, ] kvas=[15, 15, 15, ] taps=[1, 1, 1, ] %rs=[0.6, 1.2, 1.2, ] xhl=2.04 xht=2.04 xlt=1.36 %noloadloss=0.2 %imag=0.5 ppm_antifloat=1 kvs=[7.2 0.12 0.12]
new Transformer.t21236413b phases=1 windings=3 buses=[l3085391.2, x3085391b.1.0, x3085391b.0.2, ] conns=[wye, wye, wye, ] kvs=[7.2, 0.12, 0.12, ] kvas=[50, 50, 50, ] taps=[1, 1, 1, ] %rs=[0.6, 1.2, 1.2, ] xhl=2.04 xht=2.04 xlt=1.36 %noloadloss=0.2 %imag=0.5 ppm_antifloat=1 kvs=[7.2 0.12 0.12]
new Transformer.t5302468a phases=1 windings=3 buses=[l2897778.1, x2897778a.1.0, x2897778a.0.2, ] conns=[wye, wye, wye, ] kvs=[7.2, 0.12, 0.12, ] kvas=[10, 10, 10, ] taps=[1, 1, 1, ] %rs=[0.6, 1.2, 1.2, ] xhl=2.04 xht=2.04 xlt=1.36 %noloadloss=0.2 %imag=0.5 ppm_antifloat=1 kvs=[7.2 0.12 0.12]
new Transformer.t5294787a phases=1 windings=3 buses=[l3197647.1, x3197647a.1.0, x3197647a.0.2, ] conns=[wye, wye, wye, ] kvs=[7.2, 0.12, 0.12, ] kvas=[10, 10, 10, ] taps=[1, 1, 1, ] %rs=[0.6, 1.2, 1.2, ] xhl=2.04 xht=2.04 xlt=1.36 %noloadloss=0.2 %imag=0.5 ppm_antifloat=1 kvs=[7.2 0.12 0.12]
new Transformer.t5157715b phases=1 windings=3 buses=[l2936275.2, x2936275b.1.0, x2936275b.0.2, ] conns=[wye, wye, wye, ] kvs=[7.2, 0.12, 0.12, ] kvas=[10, 10, 10, ] taps=[1, 1, 1, ] %rs=[0.6, 1.2, 1.2, ] xhl=2.04 xht=2.04 xlt=1.36 %noloadloss=0.2 %imag=0.5 ppm_antifloat=1 kvs=[7.2 0.12 0.12]
new Transformer.t5355768b phases=1 windings=3 buses=[l2729408.2, x2729408b.1.0, x2729408b.0.2, ] conns=[wye, wye, wye, ] kvs=[7.2, 0.12, 0.12, ] kvas=[25, 25, 25, ] taps=[1, 1, 1, ] %rs=[0.6, 1.2, 1.2, ] xhl=2.04 xht=2.04 xlt=1.36 %noloadloss=0.2 %imag=0.5 ppm_antifloat=1 kvs=[7.2 0.12 0.12]
new Transformer.t5138562a phases=1 windings=3 buses=[l2673310.1, x2673310a.1.0, x2673310a.0.2, ] conns=[wye, wye, wye, ] kvs=[7.2, 0.12, 0.12, ] kvas=[25, 25, 25, ] taps=[1, 1, 1, ] %rs=[0.6, 1.2, 1.2, ] xhl=2.04 xht=2.04 xlt=1.36 %noloadloss=0.2 %imag=0.5 ppm_antifloat=1 kvs=[7.2 0.12 0.12]
new Transformer.t5355934a phases=1 windings=3 buses=[l3048212.1, x3048212a.1.0, x3048212a.0.2, ] conns=[wye, wye, wye, ] kvs=[7.2, 0.12, 0.12, ] kvas=[10, 10, 10, ] taps=[1, 1, 1, ] %rs=[0.6, 1.2, 1.2, ] xhl=2.04 xht=2.04 xlt=1.36 %noloadloss=0.2 %imag=0.5 ppm_antifloat=1 kvs=[7.2 0.12 0.12]
new Transformer.t5293483a phases=1 windings=3 buses=[l3104133.1, x3104133a.1.0, x3104133a.0.2, ] conns=[wye, wye, wye, ] kvs=[7.2, 0.12, 0.12, ] kvas=[25, 25, 25, ] taps=[1, 1, 1, ] %rs=[0.6, 1.2, 1.2, ] xhl=2.04 xht=2.04 xlt=1.36 %noloadloss=0.2 %imag=0.5 ppm_antifloat=1 kvs=[7.2 0.12 0.12]
new Transformer.t21399762a phases=1 windings=3 buses=[l2879087.1, x2879087a.1.0, x2879087a.0.2, ] conns=[wye, wye, wye, ] kvs=[7.2, 0.12, 0.12, ] kvas=[15, 15, 15, ] taps=[1, 1, 1, ] %rs=[0.6, 1.2, 1.2, ] xhl=2.04 xht=2.04 xlt=1.36 %noloadloss=0.2 %imag=0.5 ppm_antifloat=1 kvs=[7.2 0.12 0.12]
new Transformer.t5138650c phases=1 windings=3 buses=[l2710510.3, x2710510c.1.0, x2710510c.0.2, ] conns=[wye, wye, wye, ] kvs=[7.2, 0.12, 0.12, ] kvas=[10, 10, 10, ] taps=[1, 1, 1, ] %rs=[0.6, 1.2, 1.2, ] xhl=2.04 xht=2.04 xlt=1.36 %noloadloss=0.2 %imag=0.5 ppm_antifloat=1 kvs=[7.2 0.12 0.12]
new Transformer.t5323242b phases=1 windings=3 buses=[l3122810.2, x3122810b.1.0, x3122810b.0.2, ] conns=[wye, wye, wye, ] kvs=[7.2, 0.12, 0.12, ] kvas=[25, 25, 25, ] taps=[1, 1, 1, ] %rs=[0.6, 1.2, 1.2, ] xhl=2.04 xht=2.04 xlt=1.36 %noloadloss=0.2 %imag=0.5 ppm_antifloat=1 kvs=[7.2 0.12 0.12]
new Transformer.t28127090c phases=1 windings=3 buses=[l2954352.3, x2954352c.1.0, x2954352c.0.2, ] conns=[wye, wye, wye, ] kvs=[7.2, 0.12, 0.12, ] kvas=[25, 25, 25, ] taps=[1, 1, 1, ] %rs=[0.6, 1.2, 1.2, ] xhl=2.04 xht=2.04 xlt=1.36 %noloadloss=0.2 %imag=0.5 ppm_antifloat=1 kvs=[7.2 0.12 0.12]
new Transformer.t5138769a phases=1 windings=3 buses=[l2729411.1, x2729411a.1.0, x2729411a.0.2, ] conns=[wye, wye, wye, ] kvs=[7.2, 0.12, 0.12, ] kvas=[10, 10, 10, ] taps=[1, 1, 1, ] %rs=[0.6, 1.2, 1.2, ] xhl=2.04 xht=2.04 xlt=1.36 %noloadloss=0.2 %imag=0.5 ppm_antifloat=1 kvs=[7.2 0.12 0.12]
new Transformer.t5338896a phases=1 windings=3 buses=[l3178971.1, x3178971a.1.0, x3178971a.0.2, ] conns=[wye, wye, wye, ] kvs=[7.2, 0.12, 0.12, ] kvas=[15, 15, 15, ] taps=[1, 1, 1, ] %rs=[0.6, 1.2, 1.2, ] xhl=2.04 xht=2.04 xlt=1.36 %noloadloss=0.2 %imag=0.5 ppm_antifloat=1 kvs=[7.2 0.12 0.12]
new Transformer.t5355586b phases=1 windings=3 buses=[l3254234.2, x3254234b.1.0, x3254234b.0.2, ] conns=[wye, wye, wye, ] kvs=[7.2, 0.12, 0.12, ] kvas=[25, 25, 25, ] taps=[1, 1, 1, ] %rs=[0.6, 1.2, 1.2, ] xhl=2.04 xht=2.04 xlt=1.36 %noloadloss=0.2 %imag=0.5 ppm_antifloat=1 kvs=[7.2 0.12 0.12]
new Transformer.t5293471a phases=1 windings=3 buses=[293471.1, x_293471a.1.0, x_293471a.0.2, ] conns=[wye, wye, wye, ] kvs=[7.2, 0.12, 0.12, ] kvas=[25, 25, 25, ] taps=[1, 1, 1, ] %rs=[0.6, 1.2, 1.2, ] xhl=2.04 xht=2.04 xlt=1.36 %noloadloss=0.2 %imag=0.5 ppm_antifloat=1 kvs=[7.2 0.12 0.12]
new Transformer.t5293471b phases=1 windings=3 buses=[293471.2, x_293471b.1.0, x_293471b.0.2, ] conns=[wye, wye, wye, ] kvs=[7.2, 0.12, 0.12, ] kvas=[25, 25, 25, ] taps=[1, 1, 1, ] %rs=[0.6, 1.2, 1.2, ] xhl=2.04 xht=2.04 xlt=1.36 %noloadloss=0.2 %imag=0.5 ppm_antifloat=1 kvs=[7.2 0.12 0.12]
new Transformer.t5293471c phases=1 windings=3 buses=[293471.3, x_293471c.1.0, x_293471c.0.2, ] conns=[wye, wye, wye, ] kvs=[7.2, 0.12, 0.12, ] kvas=[25, 25, 25, ] taps=[1, 1, 1, ] %rs=[0.6, 1.2, 1.2, ] xhl=2.04 xht=2.04 xlt=1.36 %noloadloss=0.2 %imag=0.5 ppm_antifloat=1 kvs=[7.2 0.12 0.12]
new Transformer.t5338954a phases=1 windings=3 buses=[l2860482.1, x2860482a.1.0, x2860482a.0.2, ] conns=[wye, wye, wye, ] kvs=[7.2, 0.12, 0.12, ] kvas=[25, 25, 25, ] taps=[1, 1, 1, ] %rs=[0.6, 1.2, 1.2, ] xhl=2.04 xht=2.04 xlt=1.36 %noloadloss=0.2 %imag=0.5 ppm_antifloat=1 kvs=[7.2 0.12 0.12]
new Transformer.t21459629c phases=1 windings=3 buses=[l2763811.3, x2763811c.1.0, x2763811c.0.2, ] conns=[wye, wye, wye, ] kvs=[7.2, 0.12, 0.12, ] kvas=[75, 75, 75, ] taps=[1, 1, 1, ] %rs=[0.6, 1.2, 1.2, ] xhl=2.04 xht=2.04 xlt=1.36 %noloadloss=0.2 %imag=0.5 ppm_antifloat=1 kvs=[7.2 0.12 0.12]
new Transformer.t5260562a phases=1 windings=3 buses=[l3251799.1, x3251799a.1.0, x3251799a.0.2, ] conns=[wye, wye, wye, ] kvs=[7.2, 0.12, 0.12, ] kvas=[37.5, 37.5, 37.5, ] taps=[1, 1, 1, ] %rs=[0.6, 1.2, 1.2, ] xhl=2.04 xht=2.04 xlt=1.36 %noloadloss=0.2 %imag=0.5 ppm_antifloat=1 kvs=[7.2 0.12 0.12]
new Transformer.t21393486c phases=1 windings=3 buses=[l2898526.3, x2898526c.1.0, x2898526c.0.2, ] conns=[wye, wye, wye, ] kvs=[7.2, 0.12, 0.12, ] kvas=[15, 15, 15, ] taps=[1, 1, 1, ] %rs=[0.6, 1.2, 1.2, ] xhl=2.04 xht=2.04 xlt=1.36 %noloadloss=0.2 %imag=0.5 ppm_antifloat=1 kvs=[7.2 0.12 0.12]
new Transformer.t5293518b phases=1 windings=3 buses=[l2897780.2, x2897780b.1.0, x2897780b.0.2, ] conns=[wye, wye, wye, ] kvs=[7.2, 0.12, 0.12, ] kvas=[25, 25, 25, ] taps=[1, 1, 1, ] %rs=[0.6, 1.2, 1.2, ] xhl=2.04 xht=2.04 xlt=1.36 %noloadloss=0.2 %imag=0.5 ppm_antifloat=1 kvs=[7.2 0.12 0.12]
new Transformer.t226195194c phases=1 windings=3 buses=[l3027124.3, x3027124c.1.0, x3027124c.0.2, ] conns=[wye, wye, wye, ] kvs=[7.2, 0.12, 0.12, ] kvas=[25, 25, 25, ] taps=[1, 1, 1, ] %rs=[0.6, 1.2, 1.2, ] xhl=2.04 xht=2.04 xlt=1.36 %noloadloss=0.2 %imag=0.5 ppm_antifloat=1 kvs=[7.2 0.12 0.12]
new Transformer.t21383494b phases=1 windings=3 buses=[l2954361.2, x2954361b.1.0, x2954361b.0.2, ] conns=[wye, wye, wye, ] kvs=[7.2, 0.12, 0.12, ] kvas=[25, 25, 25, ] taps=[1, 1, 1, ] %rs=[0.6, 1.2, 1.2, ] xhl=2.04 xht=2.04 xlt=1.36 %noloadloss=0.2 %imag=0.5 ppm_antifloat=1 kvs=[7.2 0.12 0.12]
new Transformer.t5251863c phases=1 windings=3 buses=[l2745811.3, x2745811c.1.0, x2745811c.0.2, ] conns=[wye, wye, wye, ] kvs=[7.2, 0.12, 0.12, ] kvas=[25, 25, 25, ] taps=[1, 1, 1, ] %rs=[0.6, 1.2, 1.2, ] xhl=2.04 xht=2.04 xlt=1.36 %noloadloss=0.2 %imag=0.5 ppm_antifloat=1 kvs=[7.2 0.12 0.12]
new Transformer.t5293645a phases=1 windings=3 buses=[l2841633.1, x2841633a.1.0, x2841633a.0.2, ] conns=[wye, wye, wye, ] kvs=[7.2, 0.12, 0.12, ] kvas=[25, 25, 25, ] taps=[1, 1, 1, ] %rs=[0.6, 1.2, 1.2, ] xhl=2.04 xht=2.04 xlt=1.36 %noloadloss=0.2 %imag=0.5 ppm_antifloat=1 kvs=[7.2 0.12 0.12]
new Transformer.t21482431a phases=1 windings=3 buses=[l2917359.1, x2917359a.1.0, x2917359a.0.2, ] conns=[wye, wye, wye, ] kvs=[7.2, 0.12, 0.12, ] kvas=[15, 15, 15, ] taps=[1, 1, 1, ] %rs=[0.6, 1.2, 1.2, ] xhl=2.04 xht=2.04 xlt=1.36 %noloadloss=0.2 %imag=0.5 ppm_antifloat=1 kvs=[7.2 0.12 0.12]
new Transformer.t5293480a phases=1 windings=3 buses=[l2748158.1, x2748158a.1.0, x2748158a.0.2, ] conns=[wye, wye, wye, ] kvs=[7.2, 0.12, 0.12, ] kvas=[15, 15, 15, ] taps=[1, 1, 1, ] %rs=[0.6, 1.2, 1.2, ] xhl=2.04 xht=2.04 xlt=1.36 %noloadloss=0.2 %imag=0.5 ppm_antifloat=1 kvs=[7.2 0.12 0.12]
new Transformer.t21469911a phases=1 windings=3 buses=[l2955047.1, x2955047a.1.0, x2955047a.0.2, ] conns=[wye, wye, wye, ] kvs=[7.2, 0.12, 0.12, ] kvas=[25, 25, 25, ] taps=[1, 1, 1, ] %rs=[0.6, 1.2, 1.2, ] xhl=2.04 xht=2.04 xlt=1.36 %noloadloss=0.2 %imag=0.5 ppm_antifloat=1 kvs=[7.2 0.12 0.12]
new Transformer.t5355432c phases=1 windings=3 buses=[l3122837.3, x3122837c.1.0, x3122837c.0.2, ] conns=[wye, wye, wye, ] kvs=[7.2, 0.12, 0.12, ] kvas=[37.5, 37.5, 37.5, ] taps=[1, 1, 1, ] %rs=[0.6, 1.2, 1.2, ] xhl=2.04 xht=2.04 xlt=1.36 %noloadloss=0.2 %imag=0.5 ppm_antifloat=1 kvs=[7.2 0.12 0.12]
new Transformer.t5323285b phases=1 windings=3 buses=[l2804269.2, x2804269b.1.0, x2804269b.0.2, ] conns=[wye, wye, wye, ] kvs=[7.2, 0.12, 0.12, ] kvas=[25, 25, 25, ] taps=[1, 1, 1, ] %rs=[0.6, 1.2, 1.2, ] xhl=2.04 xht=2.04 xlt=1.36 %noloadloss=0.2 %imag=0.5 ppm_antifloat=1 kvs=[7.2 0.12 0.12]
new Transformer.t226192954c phases=1 windings=3 buses=[l3157708.3, x3157708c.1.0, x3157708c.0.2, ] conns=[wye, wye, wye, ] kvs=[7.2, 0.12, 0.12, ] kvas=[15, 15, 15, ] taps=[1, 1, 1, ] %rs=[0.6, 1.2, 1.2, ] xhl=2.04 xht=2.04 xlt=1.36 %noloadloss=0.2 %imag=0.5 ppm_antifloat=1 kvs=[7.2 0.12 0.12]
new Transformer.t5207292c phases=1 windings=3 buses=[l3179682.3, x3179682c.1.0, x3179682c.0.2, ] conns=[wye, wye, wye, ] kvs=[7.2, 0.12, 0.12, ] kvas=[15, 15, 15, ] taps=[1, 1, 1, ] %rs=[0.6, 1.2, 1.2, ] xhl=2.04 xht=2.04 xlt=1.36 %noloadloss=0.2 %imag=0.5 ppm_antifloat=1 kvs=[7.2 0.12 0.12]
new Transformer.t5337672b phases=1 windings=3 buses=[l2822877.2, x2822877b.1.0, x2822877b.0.2, ] conns=[wye, wye, wye, ] kvs=[7.2, 0.12, 0.12, ] kvas=[15, 15, 15, ] taps=[1, 1, 1, ] %rs=[0.6, 1.2, 1.2, ] xhl=2.04 xht=2.04 xlt=1.36 %noloadloss=0.2 %imag=0.5 ppm_antifloat=1 kvs=[7.2 0.12 0.12]
new Transformer.t5442373c phases=1 windings=3 buses=[l3141393.3, x3141393c.1.0, x3141393c.0.2, ] conns=[wye, wye, wye, ] kvs=[7.2, 0.12, 0.12, ] kvas=[25, 25, 25, ] taps=[1, 1, 1, ] %rs=[0.6, 1.2, 1.2, ] xhl=2.04 xht=2.04 xlt=1.36 %noloadloss=0.2 %imag=0.5 ppm_antifloat=1 kvs=[7.2 0.12 0.12]
new Transformer.t21470405a phases=1 windings=3 buses=[l2897801.1, x2897801a.1.0, x2897801a.0.2, ] conns=[wye, wye, wye, ] kvs=[7.2, 0.12, 0.12, ] kvas=[37.5, 37.5, 37.5, ] taps=[1, 1, 1, ] %rs=[0.6, 1.2, 1.2, ] xhl=2.04 xht=2.04 xlt=1.36 %noloadloss=0.2 %imag=0.5 ppm_antifloat=1 kvs=[7.2 0.12 0.12]
new Transformer.t5218474a phases=1 windings=3 buses=[l3217056.1, x3217056a.1.0, x3217056a.0.2, ] conns=[wye, wye, wye, ] kvs=[7.2, 0.12, 0.12, ] kvas=[50, 50, 50, ] taps=[1, 1, 1, ] %rs=[0.6, 1.2, 1.2, ] xhl=2.04 xht=2.04 xlt=1.36 %noloadloss=0.2 %imag=0.5 ppm_antifloat=1 kvs=[7.2 0.12 0.12]
new Transformer.t5218472a phases=1 windings=3 buses=[l2936270.1, x2936270a.1.0, x2936270a.0.2, ] conns=[wye, wye, wye, ] kvs=[7.2, 0.12, 0.12, ] kvas=[25, 25, 25, ] taps=[1, 1, 1, ] %rs=[0.6, 1.2, 1.2, ] xhl=2.04 xht=2.04 xlt=1.36 %noloadloss=0.2 %imag=0.5 ppm_antifloat=1 kvs=[7.2 0.12 0.12]
new Transformer.t5356014a phases=1 windings=3 buses=[l3235249.1, x3235249a.1.0, x3235249a.0.2, ] conns=[wye, wye, wye, ] kvs=[7.2, 0.12, 0.12, ] kvas=[10, 10, 10, ] taps=[1, 1, 1, ] %rs=[0.6, 1.2, 1.2, ] xhl=2.04 xht=2.04 xlt=1.36 %noloadloss=0.2 %imag=0.5 ppm_antifloat=1 kvs=[7.2 0.12 0.12]
new Transformer.t5260528c phases=1 windings=3 buses=[l3217052.3, x3217052c.1.0, x3217052c.0.2, ] conns=[wye, wye, wye, ] kvs=[7.2, 0.12, 0.12, ] kvas=[25, 25, 25, ] taps=[1, 1, 1, ] %rs=[0.6, 1.2, 1.2, ] xhl=2.04 xht=2.04 xlt=1.36 %noloadloss=0.2 %imag=0.5 ppm_antifloat=1 kvs=[7.2 0.12 0.12]
new Transformer.t5355933a phases=1 windings=3 buses=[l2916598.1, x2916598a.1.0, x2916598a.0.2, ] conns=[wye, wye, wye, ] kvs=[7.2, 0.12, 0.12, ] kvas=[10, 10, 10, ] taps=[1, 1, 1, ] %rs=[0.6, 1.2, 1.2, ] xhl=2.04 xht=2.04 xlt=1.36 %noloadloss=0.2 %imag=0.5 ppm_antifloat=1 kvs=[7.2 0.12 0.12]
new Transformer.t5138649a phases=1 windings=3 buses=[l3048206.1, x3048206a.1.0, x3048206a.0.2, ] conns=[wye, wye, wye, ] kvs=[7.2, 0.12, 0.12, ] kvas=[25, 25, 25, ] taps=[1, 1, 1, ] %rs=[0.6, 1.2, 1.2, ] xhl=2.04 xht=2.04 xlt=1.36 %noloadloss=0.2 %imag=0.5 ppm_antifloat=1 kvs=[7.2 0.12 0.12]
new Transformer.t5391978c phases=1 windings=3 buses=[l3141402.3, x3141402c.1.0, x3141402c.0.2, ] conns=[wye, wye, wye, ] kvs=[7.2, 0.12, 0.12, ] kvas=[25, 25, 25, ] taps=[1, 1, 1, ] %rs=[0.6, 1.2, 1.2, ] xhl=2.04 xht=2.04 xlt=1.36 %noloadloss=0.2 %imag=0.5 ppm_antifloat=1 kvs=[7.2 0.12 0.12]
new Transformer.t5138642a phases=1 windings=3 buses=[l3235256.1, x3235256a.1.0, x3235256a.0.2, ] conns=[wye, wye, wye, ] kvs=[7.2, 0.12, 0.12, ] kvas=[15, 15, 15, ] taps=[1, 1, 1, ] %rs=[0.6, 1.2, 1.2, ] xhl=2.04 xht=2.04 xlt=1.36 %noloadloss=0.2 %imag=0.5 ppm_antifloat=1 kvs=[7.2 0.12 0.12]
new Transformer.t21149420a phases=1 windings=3 buses=[l3178973.1, x3178973a.1.0, x3178973a.0.2, ] conns=[wye, wye, wye, ] kvs=[7.2, 0.12, 0.12, ] kvas=[25, 25, 25, ] taps=[1, 1, 1, ] %rs=[0.6, 1.2, 1.2, ] xhl=2.04 xht=2.04 xlt=1.36 %noloadloss=0.2 %imag=0.5 ppm_antifloat=1 kvs=[7.2 0.12 0.12]
new Transformer.t21382992a phases=1 windings=3 buses=[l3197654.1, x3197654a.1.0, x3197654a.0.2, ] conns=[wye, wye, wye, ] kvs=[7.2, 0.12, 0.12, ] kvas=[25, 25, 25, ] taps=[1, 1, 1, ] %rs=[0.6, 1.2, 1.2, ] xhl=2.04 xht=2.04 xlt=1.36 %noloadloss=0.2 %imag=0.5 ppm_antifloat=1 kvs=[7.2 0.12 0.12]
new Transformer.t5338958c phases=1 windings=3 buses=[l3066809.3, x3066809c.1.0, x3066809c.0.2, ] conns=[wye, wye, wye, ] kvs=[7.2, 0.12, 0.12, ] kvas=[25, 25, 25, ] taps=[1, 1, 1, ] %rs=[0.6, 1.2, 1.2, ] xhl=2.04 xht=2.04 xlt=1.36 %noloadloss=0.2 %imag=0.5 ppm_antifloat=1 kvs=[7.2 0.12 0.12]
new Transformer.t5355585b phases=1 windings=3 buses=[l2766742.2, x2766742b.1.0, x2766742b.0.2, ] conns=[wye, wye, wye, ] kvs=[7.2, 0.12, 0.12, ] kvas=[15, 15, 15, ] taps=[1, 1, 1, ] %rs=[0.6, 1.2, 1.2, ] xhl=2.04 xht=2.04 xlt=1.36 %noloadloss=0.2 %imag=0.5 ppm_antifloat=1 kvs=[7.2 0.12 0.12]
new Transformer.t5338900a phases=1 windings=3 buses=[l2991908.1, x2991908a.1.0, x2991908a.0.2, ] conns=[wye, wye, wye, ] kvs=[7.2, 0.12, 0.12, ] kvas=[15, 15, 15, ] taps=[1, 1, 1, ] %rs=[0.6, 1.2, 1.2, ] xhl=2.04 xht=2.04 xlt=1.36 %noloadloss=0.2 %imag=0.5 ppm_antifloat=1 kvs=[7.2 0.12 0.12]
new Transformer.t5323389b phases=1 windings=3 buses=[l3065750.2, x3065750b.1.0, x3065750b.0.2, ] conns=[wye, wye, wye, ] kvs=[7.2, 0.12, 0.12, ] kvas=[25, 25, 25, ] taps=[1, 1, 1, ] %rs=[0.6, 1.2, 1.2, ] xhl=2.04 xht=2.04 xlt=1.36 %noloadloss=0.2 %imag=0.5 ppm_antifloat=1 kvs=[7.2 0.12 0.12]
new Transformer.t28127253a phases=1 windings=3 buses=[l3085401.1, x3085401a.1.0, x3085401a.0.2, ] conns=[wye, wye, wye, ] kvs=[7.2, 0.12, 0.12, ] kvas=[37.5, 37.5, 37.5, ] taps=[1, 1, 1, ] %rs=[0.6, 1.2, 1.2, ] xhl=2.04 xht=2.04 xlt=1.36 %noloadloss=0.2 %imag=0.5 ppm_antifloat=1 kvs=[7.2 0.12 0.12]
new Transformer.t21397067a phases=1 windings=3 buses=[l2729413.1, x2729413a.1.0, x2729413a.0.2, ] conns=[wye, wye, wye, ] kvs=[7.2, 0.12, 0.12, ] kvas=[15, 15, 15, ] taps=[1, 1, 1, ] %rs=[0.6, 1.2, 1.2, ] xhl=2.04 xht=2.04 xlt=1.36 %noloadloss=0.2 %imag=0.5 ppm_antifloat=1 kvs=[7.2 0.12 0.12]
new Transformer.t5260520b phases=1 windings=3 buses=[l3254915.2, x3254915b.1.0, x3254915b.0.2, ] conns=[wye, wye, wye, ] kvs=[7.2, 0.12, 0.12, ] kvas=[5, 5, 5, ] taps=[1, 1, 1, ] %rs=[0.6, 1.2, 1.2, ] xhl=2.04 xht=2.04 xlt=1.36 %noloadloss=0.2 %imag=0.5 ppm_antifloat=1 kvs=[7.2 0.12 0.12]
new Transformer.t5323250b phases=1 windings=3 buses=[l2748131.2, x2748131b.1.0, x2748131b.0.2, ] conns=[wye, wye, wye, ] kvs=[7.2, 0.12, 0.12, ] kvas=[15, 15, 15, ] taps=[1, 1, 1, ] %rs=[0.6, 1.2, 1.2, ] xhl=2.04 xht=2.04 xlt=1.36 %noloadloss=0.2 %imag=0.5 ppm_antifloat=1 kvs=[7.2 0.12 0.12]
new Transformer.t5337659c phases=1 windings=3 buses=[l3066810.3, x3066810c.1.0, x3066810c.0.2, ] conns=[wye, wye, wye, ] kvs=[7.2, 0.12, 0.12, ] kvas=[25, 25, 25, ] taps=[1, 1, 1, ] %rs=[0.6, 1.2, 1.2, ] xhl=2.04 xht=2.04 xlt=1.36 %noloadloss=0.2 %imag=0.5 ppm_antifloat=1 kvs=[7.2 0.12 0.12]
new Transformer.t28118903b phases=1 windings=3 buses=[l2973146.2, x2973146b.1.0, x2973146b.0.2, ] conns=[wye, wye, wye, ] kvs=[7.2, 0.12, 0.12, ] kvas=[25, 25, 25, ] taps=[1, 1, 1, ] %rs=[0.6, 1.2, 1.2, ] xhl=2.04 xht=2.04 xlt=1.36 %noloadloss=0.2 %imag=0.5 ppm_antifloat=1 kvs=[7.2 0.12 0.12]
new Transformer.t21398646b phases=1 windings=3 buses=[l2973180.2, x2973180b.1.0, x2973180b.0.2, ] conns=[wye, wye, wye, ] kvs=[7.2, 0.12, 0.12, ] kvas=[25, 25, 25, ] taps=[1, 1, 1, ] %rs=[0.6, 1.2, 1.2, ] xhl=2.04 xht=2.04 xlt=1.36 %noloadloss=0.2 %imag=0.5 ppm_antifloat=1 kvs=[7.2 0.12 0.12]
new Transformer.t5293656b phases=1 windings=3 buses=[l2973167.2, x2973167b.1.0, x2973167b.0.2, ] conns=[wye, wye, wye, ] kvs=[7.2, 0.12, 0.12, ] kvas=[15, 15, 15, ] taps=[1, 1, 1, ] %rs=[0.6, 1.2, 1.2, ] xhl=2.04 xht=2.04 xlt=1.36 %noloadloss=0.2 %imag=0.5 ppm_antifloat=1 kvs=[7.2 0.12 0.12]
new Transformer.t5338910c phases=1 windings=3 buses=[l2841621.3, x2841621c.1.0, x2841621c.0.2, ] conns=[wye, wye, wye, ] kvs=[7.2, 0.12, 0.12, ] kvas=[25, 25, 25, ] taps=[1, 1, 1, ] %rs=[0.6, 1.2, 1.2, ] xhl=2.04 xht=2.04 xlt=1.36 %noloadloss=0.2 %imag=0.5 ppm_antifloat=1 kvs=[7.2 0.12 0.12]
new Transformer.t28129923c phases=1 windings=3 buses=[l3123509.3, x3123509c.1.0, x3123509c.0.2, ] conns=[wye, wye, wye, ] kvs=[7.2, 0.12, 0.12, ] kvas=[15, 15, 15, ] taps=[1, 1, 1, ] %rs=[0.6, 1.2, 1.2, ] xhl=2.04 xht=2.04 xlt=1.36 %noloadloss=0.2 %imag=0.5 ppm_antifloat=1 kvs=[7.2 0.12 0.12]
new Transformer.t5337716a phases=1 windings=3 buses=[l2841627.1, x2841627a.1.0, x2841627a.0.2, ] conns=[wye, wye, wye, ] kvs=[7.2, 0.12, 0.12, ] kvas=[15, 15, 15, ] taps=[1, 1, 1, ] %rs=[0.6, 1.2, 1.2, ] xhl=2.04 xht=2.04 xlt=1.36 %noloadloss=0.2 %imag=0.5 ppm_antifloat=1 kvs=[7.2 0.12 0.12]
new Transformer.t5337698b phases=1 windings=3 buses=[l3235250.2, x3235250b.1.0, x3235250b.0.2, ] conns=[wye, wye, wye, ] kvs=[7.2, 0.12, 0.12, ] kvas=[10, 10, 10, ] taps=[1, 1, 1, ] %rs=[0.6, 1.2, 1.2, ] xhl=2.04 xht=2.04 xlt=1.36 %noloadloss=0.2 %imag=0.5 ppm_antifloat=1 kvs=[7.2 0.12 0.12]
new Transformer.t2224386946a phases=1 windings=3 buses=[l3728037.1, x3728037a.1.0, x3728037a.0.2, ] conns=[wye, wye, wye, ] kvs=[7.2, 0.12, 0.12, ] kvas=[25, 25, 25, ] taps=[1, 1, 1, ] %rs=[0.6, 1.2, 1.2, ] xhl=2.04 xht=2.04 xlt=1.36 %noloadloss=0.2 %imag=0.5 ppm_antifloat=1 kvs=[7.2 0.12 0.12]
new Transformer.t5330121b phases=1 windings=3 buses=[l3142078.2, x3142078b.1.0, x3142078b.0.2, ] conns=[wye, wye, wye, ] kvs=[7.2, 0.12, 0.12, ] kvas=[10, 10, 10, ] taps=[1, 1, 1, ] %rs=[0.6, 1.2, 1.2, ] xhl=2.04 xht=2.04 xlt=1.36 %noloadloss=0.2 %imag=0.5 ppm_antifloat=1 kvs=[7.2 0.12 0.12]
new Transformer.t5323252b phases=1 windings=3 buses=[l2879066.2, x2879066b.1.0, x2879066b.0.2, ] conns=[wye, wye, wye, ] kvs=[7.2, 0.12, 0.12, ] kvas=[15, 15, 15, ] taps=[1, 1, 1, ] %rs=[0.6, 1.2, 1.2, ] xhl=2.04 xht=2.04 xlt=1.36 %noloadloss=0.2 %imag=0.5 ppm_antifloat=1 kvs=[7.2 0.12 0.12]
new Transformer.t5441331c phases=1 windings=3 buses=[l3235254.3, x3235254c.1.0, x3235254c.0.2, ] conns=[wye, wye, wye, ] kvs=[7.2, 0.12, 0.12, ] kvas=[25, 25, 25, ] taps=[1, 1, 1, ] %rs=[0.6, 1.2, 1.2, ] xhl=2.04 xht=2.04 xlt=1.36 %noloadloss=0.2 %imag=0.5 ppm_antifloat=1 kvs=[7.2 0.12 0.12]
new Transformer.t5260474a phases=1 windings=3 buses=[l2917330.1, x2917330a.1.0, x2917330a.0.2, ] conns=[wye, wye, wye, ] kvs=[7.2, 0.12, 0.12, ] kvas=[25, 25, 25, ] taps=[1, 1, 1, ] %rs=[0.6, 1.2, 1.2, ] xhl=2.04 xht=2.04 xlt=1.36 %noloadloss=0.2 %imag=0.5 ppm_antifloat=1 kvs=[7.2 0.12 0.12]
new Transformer.t5355376b phases=1 windings=3 buses=[l2914323.2, x2914323b.1.0, x2914323b.0.2, ] conns=[wye, wye, wye, ] kvs=[7.2, 0.12, 0.12, ] kvas=[10, 10, 10, ] taps=[1, 1, 1, ] %rs=[0.6, 1.2, 1.2, ] xhl=2.04 xht=2.04 xlt=1.36 %noloadloss=0.2 %imag=0.5 ppm_antifloat=1 kvs=[7.2 0.12 0.12]
new Transformer.t5338944c phases=1 windings=3 buses=[l3197640.3, x3197640c.1.0, x3197640c.0.2, ] conns=[wye, wye, wye, ] kvs=[7.2, 0.12, 0.12, ] kvas=[10, 10, 10, ] taps=[1, 1, 1, ] %rs=[0.6, 1.2, 1.2, ] xhl=2.04 xht=2.04 xlt=1.36 %noloadloss=0.2 %imag=0.5 ppm_antifloat=1 kvs=[7.2 0.12 0.12]
new Transformer.t5260640c phases=1 windings=3 buses=[l3179673.3, x3179673c.1.0, x3179673c.0.2, ] conns=[wye, wye, wye, ] kvs=[7.2, 0.12, 0.12, ] kvas=[15, 15, 15, ] taps=[1, 1, 1, ] %rs=[0.6, 1.2, 1.2, ] xhl=2.04 xht=2.04 xlt=1.36 %noloadloss=0.2 %imag=0.5 ppm_antifloat=1 kvs=[7.2 0.12 0.12]
new Transformer.t5274997c phases=1 windings=3 buses=[l3048228.3, x3048228c.1.0, x3048228c.0.2, ] conns=[wye, wye, wye, ] kvs=[7.2, 0.12, 0.12, ] kvas=[25, 25, 25, ] taps=[1, 1, 1, ] %rs=[0.6, 1.2, 1.2, ] xhl=2.04 xht=2.04 xlt=1.36 %noloadloss=0.2 %imag=0.5 ppm_antifloat=1 kvs=[7.2 0.12 0.12]
new Transformer.t5138372c phases=1 windings=3 buses=[l3104126.3, x3104126c.1.0, x3104126c.0.2, ] conns=[wye, wye, wye, ] kvs=[7.2, 0.12, 0.12, ] kvas=[10, 10, 10, ] taps=[1, 1, 1, ] %rs=[0.6, 1.2, 1.2, ] xhl=2.04 xht=2.04 xlt=1.36 %noloadloss=0.2 %imag=0.5 ppm_antifloat=1 kvs=[7.2 0.12 0.12]
new Transformer.t226308721a phases=1 windings=3 buses=[l2990098.1, x2990098a.1.0, x2990098a.0.2, ] conns=[wye, wye, wye, ] kvs=[7.2, 0.12, 0.12, ] kvas=[50, 50, 50, ] taps=[1, 1, 1, ] %rs=[0.6, 1.2, 1.2, ] xhl=2.04 xht=2.04 xlt=1.36 %noloadloss=0.2 %imag=0.5 ppm_antifloat=1 kvs=[7.2 0.12 0.12]
new Transformer.t21380616a phases=1 windings=3 buses=[l2879067.1, x2879067a.1.0, x2879067a.0.2, ] conns=[wye, wye, wye, ] kvs=[7.2, 0.12, 0.12, ] kvas=[25, 25, 25, ] taps=[1, 1, 1, ] %rs=[0.6, 1.2, 1.2, ] xhl=2.04 xht=2.04 xlt=1.36 %noloadloss=0.2 %imag=0.5 ppm_antifloat=1 kvs=[7.2 0.12 0.12]
new Transformer.t226193170a phases=1 windings=3 buses=[l3176656.1, x3176656a.1.0, x3176656a.0.2, ] conns=[wye, wye, wye, ] kvs=[7.2, 0.12, 0.12, ] kvas=[25, 25, 25, ] taps=[1, 1, 1, ] %rs=[0.6, 1.2, 1.2, ] xhl=2.04 xht=2.04 xlt=1.36 %noloadloss=0.2 %imag=0.5 ppm_antifloat=1 kvs=[7.2 0.12 0.12]
new Transformer.t5293666c phases=1 windings=3 buses=[l2710532.3, x2710532c.1.0, x2710532c.0.2, ] conns=[wye, wye, wye, ] kvs=[7.2, 0.12, 0.12, ] kvas=[10, 10, 10, ] taps=[1, 1, 1, ] %rs=[0.6, 1.2, 1.2, ] xhl=2.04 xht=2.04 xlt=1.36 %noloadloss=0.2 %imag=0.5 ppm_antifloat=1 kvs=[7.2 0.12 0.12]
new Transformer.t5338994b phases=1 windings=3 buses=[l3160115.2, x3160115b.1.0, x3160115b.0.2, ] conns=[wye, wye, wye, ] kvs=[7.2, 0.12, 0.12, ] kvas=[50, 50, 50, ] taps=[1, 1, 1, ] %rs=[0.6, 1.2, 1.2, ] xhl=2.04 xht=2.04 xlt=1.36 %noloadloss=0.2 %imag=0.5 ppm_antifloat=1 kvs=[7.2 0.12 0.12]
new Transformer.t228665517c phases=1 windings=3 buses=[l3103822.3, x3103822c.1.0, x3103822c.0.2, ] conns=[wye, wye, wye, ] kvs=[7.2, 0.12, 0.12, ] kvas=[37.5, 37.5, 37.5, ] taps=[1, 1, 1, ] %rs=[0.6, 1.2, 1.2, ] xhl=2.04 xht=2.04 xlt=1.36 %noloadloss=0.2 %imag=0.5 ppm_antifloat=1 kvs=[7.2 0.12 0.12]
new Transformer.t5260647a phases=1 windings=3 buses=[l2805034.1, x2805034a.1.0, x2805034a.0.2, ] conns=[wye, wye, wye, ] kvs=[7.2, 0.12, 0.12, ] kvas=[10, 10, 10, ] taps=[1, 1, 1, ] %rs=[0.6, 1.2, 1.2, ] xhl=2.04 xht=2.04 xlt=1.36 %noloadloss=0.2 %imag=0.5 ppm_antifloat=1 kvs=[7.2 0.12 0.12]
new Transformer.t226115278a phases=1 windings=3 buses=[l3157167.1, x3157167a.1.0, x3157167a.0.2, ] conns=[wye, wye, wye, ] kvs=[7.2, 0.12, 0.12, ] kvas=[15, 15, 15, ] taps=[1, 1, 1, ] %rs=[0.6, 1.2, 1.2, ] xhl=2.04 xht=2.04 xlt=1.36 %noloadloss=0.2 %imag=0.5 ppm_antifloat=1 kvs=[7.2 0.12 0.12]
new Transformer.t5338977a phases=1 windings=3 buses=[l2916620.1, x2916620a.1.0, x2916620a.0.2, ] conns=[wye, wye, wye, ] kvs=[7.2, 0.12, 0.12, ] kvas=[10, 10, 10, ] taps=[1, 1, 1, ] %rs=[0.6, 1.2, 1.2, ] xhl=2.04 xht=2.04 xlt=1.36 %noloadloss=0.2 %imag=0.5 ppm_antifloat=1 kvs=[7.2 0.12 0.12]
new Transformer.t5338977b phases=1 windings=3 buses=[l2916620.2, x2916620b.1.0, x2916620b.0.2, ] conns=[wye, wye, wye, ] kvs=[7.2, 0.12, 0.12, ] kvas=[10, 10, 10, ] taps=[1, 1, 1, ] %rs=[0.6, 1.2, 1.2, ] xhl=2.04 xht=2.04 xlt=1.36 %noloadloss=0.2 %imag=0.5 ppm_antifloat=1 kvs=[7.2 0.12 0.12]
new Transformer.t5338977c phases=1 windings=3 buses=[l2916620.3, x2916620c.1.0, x2916620c.0.2, ] conns=[wye, wye, wye, ] kvs=[7.2, 0.12, 0.12, ] kvas=[10, 10, 10, ] taps=[1, 1, 1, ] %rs=[0.6, 1.2, 1.2, ] xhl=2.04 xht=2.04 xlt=1.36 %noloadloss=0.2 %imag=0.5 ppm_antifloat=1 kvs=[7.2 0.12 0.12]
new Transformer.t5321876a phases=1 windings=3 buses=[l3027132.1, x3027132a.1.0, x3027132a.0.2, ] conns=[wye, wye, wye, ] kvs=[7.2, 0.12, 0.12, ] kvas=[15, 15, 15, ] taps=[1, 1, 1, ] %rs=[0.6, 1.2, 1.2, ] xhl=2.04 xht=2.04 xlt=1.36 %noloadloss=0.2 %imag=0.5 ppm_antifloat=1 kvs=[7.2 0.12 0.12]
new Transformer.t5275001c phases=1 windings=3 buses=[l2822862.3, x2822862c.1.0, x2822862c.0.2, ] conns=[wye, wye, wye, ] kvs=[7.2, 0.12, 0.12, ] kvas=[15, 15, 15, ] taps=[1, 1, 1, ] %rs=[0.6, 1.2, 1.2, ] xhl=2.04 xht=2.04 xlt=1.36 %noloadloss=0.2 %imag=0.5 ppm_antifloat=1 kvs=[7.2 0.12 0.12]
new Transformer.t227411650c phases=1 windings=3 buses=[l2937757.3, x2937757c.1.0, x2937757c.0.2, ] conns=[wye, wye, wye, ] kvs=[7.2, 0.12, 0.12, ] kvas=[25, 25, 25, ] taps=[1, 1, 1, ] %rs=[0.6, 1.2, 1.2, ] xhl=2.04 xht=2.04 xlt=1.36 %noloadloss=0.2 %imag=0.5 ppm_antifloat=1 kvs=[7.2 0.12 0.12]
new Transformer.t21396699b phases=1 windings=3 buses=[l2860483.2, x2860483b.1.0, x2860483b.0.2, ] conns=[wye, wye, wye, ] kvs=[7.2, 0.12, 0.12, ] kvas=[25, 25, 25, ] taps=[1, 1, 1, ] %rs=[0.6, 1.2, 1.2, ] xhl=2.04 xht=2.04 xlt=1.36 %noloadloss=0.2 %imag=0.5 ppm_antifloat=1 kvs=[7.2 0.12 0.12]
new Transformer.t5302412a phases=1 windings=3 buses=[l3048210.1, x3048210a.1.0, x3048210a.0.2, ] conns=[wye, wye, wye, ] kvs=[7.2, 0.12, 0.12, ] kvas=[37.5, 37.5, 37.5, ] taps=[1, 1, 1, ] %rs=[0.6, 1.2, 1.2, ] xhl=2.04 xht=2.04 xlt=1.36 %noloadloss=0.2 %imag=0.5 ppm_antifloat=1 kvs=[7.2 0.12 0.12]
new Transformer.t2223661373a phases=1 windings=3 buses=[l3312692.1, x3312692a.1.0, x3312692a.0.2, ] conns=[wye, wye, wye, ] kvs=[7.2, 0.12, 0.12, ] kvas=[25, 25, 25, ] taps=[1, 1, 1, ] %rs=[0.6, 1.2, 1.2, ] xhl=2.04 xht=2.04 xlt=1.36 %noloadloss=0.2 %imag=0.5 ppm_antifloat=1 kvs=[7.2 0.12 0.12]
new Transformer.t226881700a phases=1 windings=3 buses=[l3251854.1, x3251854a.1.0, x3251854a.0.2, ] conns=[wye, wye, wye, ] kvs=[7.2, 0.12, 0.12, ] kvas=[25, 25, 25, ] taps=[1, 1, 1, ] %rs=[0.6, 1.2, 1.2, ] xhl=2.04 xht=2.04 xlt=1.36 %noloadloss=0.2 %imag=0.5 ppm_antifloat=1 kvs=[7.2 0.12 0.12]
new Transformer.t5355777b phases=1 windings=3 buses=[l3085398.2, x3085398b.1.0, x3085398b.0.2, ] conns=[wye, wye, wye, ] kvs=[7.2, 0.12, 0.12, ] kvas=[25, 25, 25, ] taps=[1, 1, 1, ] %rs=[0.6, 1.2, 1.2, ] xhl=2.04 xht=2.04 xlt=1.36 %noloadloss=0.2 %imag=0.5 ppm_antifloat=1 kvs=[7.2 0.12 0.12]
new Transformer.t5337671a phases=1 windings=3 buses=[l3254207.1, x3254207a.1.0, x3254207a.0.2, ] conns=[wye, wye, wye, ] kvs=[7.2, 0.12, 0.12, ] kvas=[15, 15, 15, ] taps=[1, 1, 1, ] %rs=[0.6, 1.2, 1.2, ] xhl=2.04 xht=2.04 xlt=1.36 %noloadloss=0.2 %imag=0.5 ppm_antifloat=1 kvs=[7.2 0.12 0.12]
new Transformer.t5339018a phases=1 windings=3 buses=[l2729424.1, x2729424a.1.0, x2729424a.0.2, ] conns=[wye, wye, wye, ] kvs=[7.2, 0.12, 0.12, ] kvas=[15, 15, 15, ] taps=[1, 1, 1, ] %rs=[0.6, 1.2, 1.2, ] xhl=2.04 xht=2.04 xlt=1.36 %noloadloss=0.2 %imag=0.5 ppm_antifloat=1 kvs=[7.2 0.12 0.12]
new Transformer.t21398676a phases=1 windings=3 buses=[l3066816.1, x3066816a.1.0, x3066816a.0.2, ] conns=[wye, wye, wye, ] kvs=[7.2, 0.12, 0.12, ] kvas=[15, 15, 15, ] taps=[1, 1, 1, ] %rs=[0.6, 1.2, 1.2, ] xhl=2.04 xht=2.04 xlt=1.36 %noloadloss=0.2 %imag=0.5 ppm_antifloat=1 kvs=[7.2 0.12 0.12]
new Transformer.t5138469c phases=1 windings=3 buses=[l2785518.3, x2785518c.1.0, x2785518c.0.2, ] conns=[wye, wye, wye, ] kvs=[7.2, 0.12, 0.12, ] kvas=[15, 15, 15, ] taps=[1, 1, 1, ] %rs=[0.6, 1.2, 1.2, ] xhl=2.04 xht=2.04 xlt=1.36 %noloadloss=0.2 %imag=0.5 ppm_antifloat=1 kvs=[7.2 0.12 0.12]
new Transformer.t5138373c phases=1 windings=3 buses=[l3029503.3, x3029503c.1.0, x3029503c.0.2, ] conns=[wye, wye, wye, ] kvs=[7.2, 0.12, 0.12, ] kvas=[15, 15, 15, ] taps=[1, 1, 1, ] %rs=[0.6, 1.2, 1.2, ] xhl=2.04 xht=2.04 xlt=1.36 %noloadloss=0.2 %imag=0.5 ppm_antifloat=1 kvs=[7.2 0.12 0.12]
new Transformer.t5391995a phases=1 windings=3 buses=[l2748140.1, x2748140a.1.0, x2748140a.0.2, ] conns=[wye, wye, wye, ] kvs=[7.2, 0.12, 0.12, ] kvas=[25, 25, 25, ] taps=[1, 1, 1, ] %rs=[0.6, 1.2, 1.2, ] xhl=2.04 xht=2.04 xlt=1.36 %noloadloss=0.2 %imag=0.5 ppm_antifloat=1 kvs=[7.2 0.12 0.12]
new Transformer.t225533423c phases=1 windings=3 buses=[l2891575.3, x2891575c.1.0, x2891575c.0.2, ] conns=[wye, wye, wye, ] kvs=[7.2, 0.12, 0.12, ] kvas=[15, 15, 15, ] taps=[1, 1, 1, ] %rs=[0.6, 1.2, 1.2, ] xhl=2.04 xht=2.04 xlt=1.36 %noloadloss=0.2 %imag=0.5 ppm_antifloat=1 kvs=[7.2 0.12 0.12]
new Transformer.t5260568c phases=1 windings=3 buses=[l2842329.3, x2842329c.1.0, x2842329c.0.2, ] conns=[wye, wye, wye, ] kvs=[7.2, 0.12, 0.12, ] kvas=[15, 15, 15, ] taps=[1, 1, 1, ] %rs=[0.6, 1.2, 1.2, ] xhl=2.04 xht=2.04 xlt=1.36 %noloadloss=0.2 %imag=0.5 ppm_antifloat=1 kvs=[7.2 0.12 0.12]
new Transformer.t5138754b phases=1 windings=3 buses=[l3254212.2, x3254212b.1.0, x3254212b.0.2, ] conns=[wye, wye, wye, ] kvs=[7.2, 0.12, 0.12, ] kvas=[37.5, 37.5, 37.5, ] taps=[1, 1, 1, ] %rs=[0.6, 1.2, 1.2, ] xhl=2.04 xht=2.04 xlt=1.36 %noloadloss=0.2 %imag=0.5 ppm_antifloat=1 kvs=[7.2 0.12 0.12]
new Transformer.t5260552a phases=1 windings=3 buses=[l3198348.1, x3198348a.1.0, x3198348a.0.2, ] conns=[wye, wye, wye, ] kvs=[7.2, 0.12, 0.12, ] kvas=[50, 50, 50, ] taps=[1, 1, 1, ] %rs=[0.6, 1.2, 1.2, ] xhl=2.04 xht=2.04 xlt=1.36 %noloadloss=0.2 %imag=0.5 ppm_antifloat=1 kvs=[7.2 0.12 0.12]
new Transformer.t5338968c phases=1 windings=3 buses=[l3178979.3, x3178979c.1.0, x3178979c.0.2, ] conns=[wye, wye, wye, ] kvs=[7.2, 0.12, 0.12, ] kvas=[37.5, 37.5, 37.5, ] taps=[1, 1, 1, ] %rs=[0.6, 1.2, 1.2, ] xhl=2.04 xht=2.04 xlt=1.36 %noloadloss=0.2 %imag=0.5 ppm_antifloat=1 kvs=[7.2 0.12 0.12]
new Transformer.t5247061a phases=1 windings=3 buses=[l2879054.1, x2879054a.1.0, x2879054a.0.2, ] conns=[wye, wye, wye, ] kvs=[7.2, 0.12, 0.12, ] kvas=[25, 25, 25, ] taps=[1, 1, 1, ] %rs=[0.6, 1.2, 1.2, ] xhl=2.04 xht=2.04 xlt=1.36 %noloadloss=0.2 %imag=0.5 ppm_antifloat=1 kvs=[7.2 0.12 0.12]
new Transformer.t5391746b phases=1 windings=3 buses=[l3085388.2, x3085388b.1.0, x3085388b.0.2, ] conns=[wye, wye, wye, ] kvs=[7.2, 0.12, 0.12, ] kvas=[10, 10, 10, ] taps=[1, 1, 1, ] %rs=[0.6, 1.2, 1.2, ] xhl=2.04 xht=2.04 xlt=1.36 %noloadloss=0.2 %imag=0.5 ppm_antifloat=1 kvs=[7.2 0.12 0.12]
new Transformer.t5338941c phases=1 windings=3 buses=[l2991914.3, x2991914c.1.0, x2991914c.0.2, ] conns=[wye, wye, wye, ] kvs=[7.2, 0.12, 0.12, ] kvas=[15, 15, 15, ] taps=[1, 1, 1, ] %rs=[0.6, 1.2, 1.2, ] xhl=2.04 xht=2.04 xlt=1.36 %noloadloss=0.2 %imag=0.5 ppm_antifloat=1 kvs=[7.2 0.12 0.12]
new Transformer.t5338982b phases=1 windings=3 buses=[l2785534.2, x2785534b.1.0, x2785534b.0.2, ] conns=[wye, wye, wye, ] kvs=[7.2, 0.12, 0.12, ] kvas=[25, 25, 25, ] taps=[1, 1, 1, ] %rs=[0.6, 1.2, 1.2, ] xhl=2.04 xht=2.04 xlt=1.36 %noloadloss=0.2 %imag=0.5 ppm_antifloat=1 kvs=[7.2 0.12 0.12]
new Transformer.t5339008b phases=1 windings=3 buses=[l3122835.2, x3122835b.1.0, x3122835b.0.2, ] conns=[wye, wye, wye, ] kvs=[7.2, 0.12, 0.12, ] kvas=[15, 15, 15, ] taps=[1, 1, 1, ] %rs=[0.6, 1.2, 1.2, ] xhl=2.04 xht=2.04 xlt=1.36 %noloadloss=0.2 %imag=0.5 ppm_antifloat=1 kvs=[7.2 0.12 0.12]
new Transformer.t21391094a phases=1 windings=3 buses=[l3085395.1, x3085395a.1.0, x3085395a.0.2, ] conns=[wye, wye, wye, ] kvs=[7.2, 0.12, 0.12, ] kvas=[15, 15, 15, ] taps=[1, 1, 1, ] %rs=[0.6, 1.2, 1.2, ] xhl=2.04 xht=2.04 xlt=1.36 %noloadloss=0.2 %imag=0.5 ppm_antifloat=1 kvs=[7.2 0.12 0.12]
new Transformer.t5138581a phases=1 windings=3 buses=[l2879064.1, x2879064a.1.0, x2879064a.0.2, ] conns=[wye, wye, wye, ] kvs=[7.2, 0.12, 0.12, ] kvas=[25, 25, 25, ] taps=[1, 1, 1, ] %rs=[0.6, 1.2, 1.2, ] xhl=2.04 xht=2.04 xlt=1.36 %noloadloss=0.2 %imag=0.5 ppm_antifloat=1 kvs=[7.2 0.12 0.12]
new Transformer.t5338979b phases=1 windings=3 buses=[l3066814.2, x3066814b.1.0, x3066814b.0.2, ] conns=[wye, wye, wye, ] kvs=[7.2, 0.12, 0.12, ] kvas=[10, 10, 10, ] taps=[1, 1, 1, ] %rs=[0.6, 1.2, 1.2, ] xhl=2.04 xht=2.04 xlt=1.36 %noloadloss=0.2 %imag=0.5 ppm_antifloat=1 kvs=[7.2 0.12 0.12]
new Transformer.t226308720a phases=1 windings=3 buses=[l2821087.1, x2821087a.1.0, x2821087a.0.2, ] conns=[wye, wye, wye, ] kvs=[7.2, 0.12, 0.12, ] kvas=[75, 75, 75, ] taps=[1, 1, 1, ] %rs=[0.6, 1.2, 1.2, ] xhl=2.04 xht=2.04 xlt=1.36 %noloadloss=0.2 %imag=0.5 ppm_antifloat=1 kvs=[7.2 0.12 0.12]
new Transformer.t5355595b phases=1 windings=3 buses=[l2860479.2, x2860479b.1.0, x2860479b.0.2, ] conns=[wye, wye, wye, ] kvs=[7.2, 0.12, 0.12, ] kvas=[10, 10, 10, ] taps=[1, 1, 1, ] %rs=[0.6, 1.2, 1.2, ] xhl=2.04 xht=2.04 xlt=1.36 %noloadloss=0.2 %imag=0.5 ppm_antifloat=1 kvs=[7.2 0.12 0.12]
new Transformer.t2224387113a phases=1 windings=3 buses=[l3728042.1, x3728042a.1.0, x3728042a.0.2, ] conns=[wye, wye, wye, ] kvs=[7.2, 0.12, 0.12, ] kvas=[37.5, 37.5, 37.5, ] taps=[1, 1, 1, ] %rs=[0.6, 1.2, 1.2, ] xhl=2.04 xht=2.04 xlt=1.36 %noloadloss=0.2 %imag=0.5 ppm_antifloat=1 kvs=[7.2 0.12 0.12]
new Transformer.t21397005a phases=1 windings=3 buses=[l2935557.1, x2935557a.1.0, x2935557a.0.2, ] conns=[wye, wye, wye, ] kvs=[7.2, 0.12, 0.12, ] kvas=[37.5, 37.5, 37.5, ] taps=[1, 1, 1, ] %rs=[0.6, 1.2, 1.2, ] xhl=2.04 xht=2.04 xlt=1.36 %noloadloss=0.2 %imag=0.5 ppm_antifloat=1 kvs=[7.2 0.12 0.12]
new Transformer.t5274985c phases=1 windings=3 buses=[l2822864.3, x2822864c.1.0, x2822864c.0.2, ] conns=[wye, wye, wye, ] kvs=[7.2, 0.12, 0.12, ] kvas=[15, 15, 15, ] taps=[1, 1, 1, ] %rs=[0.6, 1.2, 1.2, ] xhl=2.04 xht=2.04 xlt=1.36 %noloadloss=0.2 %imag=0.5 ppm_antifloat=1 kvs=[7.2 0.12 0.12]
new Transformer.t5321836a phases=1 windings=3 buses=[l3235247.1, x3235247a.1.0, x3235247a.0.2, ] conns=[wye, wye, wye, ] kvs=[7.2, 0.12, 0.12, ] kvas=[15, 15, 15, ] taps=[1, 1, 1, ] %rs=[0.6, 1.2, 1.2, ] xhl=2.04 xht=2.04 xlt=1.36 %noloadloss=0.2 %imag=0.5 ppm_antifloat=1 kvs=[7.2 0.12 0.12]
new Transformer.t225673440a phases=1 windings=3 buses=[l3251807.1, x3251807a.1.0, x3251807a.0.2, ] conns=[wye, wye, wye, ] kvs=[7.2, 0.12, 0.12, ] kvas=[25, 25, 25, ] taps=[1, 1, 1, ] %rs=[0.6, 1.2, 1.2, ] xhl=2.04 xht=2.04 xlt=1.36 %noloadloss=0.2 %imag=0.5 ppm_antifloat=1 kvs=[7.2 0.12 0.12]
new Transformer.t5337641c phases=1 windings=3 buses=[l2804282.3, x2804282c.1.0, x2804282c.0.2, ] conns=[wye, wye, wye, ] kvs=[7.2, 0.12, 0.12, ] kvas=[15, 15, 15, ] taps=[1, 1, 1, ] %rs=[0.6, 1.2, 1.2, ] xhl=2.04 xht=2.04 xlt=1.36 %noloadloss=0.2 %imag=0.5 ppm_antifloat=1 kvs=[7.2 0.12 0.12]
new Transformer.t5293659c phases=1 windings=3 buses=[l2935560.3, x2935560c.1.0, x2935560c.0.2, ] conns=[wye, wye, wye, ] kvs=[7.2, 0.12, 0.12, ] kvas=[15, 15, 15, ] taps=[1, 1, 1, ] %rs=[0.6, 1.2, 1.2, ] xhl=2.04 xht=2.04 xlt=1.36 %noloadloss=0.2 %imag=0.5 ppm_antifloat=1 kvs=[7.2 0.12 0.12]
new Transformer.t5339011b phases=1 windings=3 buses=[l3104145.2, x3104145b.1.0, x3104145b.0.2, ] conns=[wye, wye, wye, ] kvs=[7.2, 0.12, 0.12, ] kvas=[15, 15, 15, ] taps=[1, 1, 1, ] %rs=[0.6, 1.2, 1.2, ] xhl=2.04 xht=2.04 xlt=1.36 %noloadloss=0.2 %imag=0.5 ppm_antifloat=1 kvs=[7.2 0.12 0.12]
new Transformer.t5218473a phases=1 windings=3 buses=[l3086078.1, x3086078a.1.0, x3086078a.0.2, ] conns=[wye, wye, wye, ] kvs=[7.2, 0.12, 0.12, ] kvas=[25, 25, 25, ] taps=[1, 1, 1, ] %rs=[0.6, 1.2, 1.2, ] xhl=2.04 xht=2.04 xlt=1.36 %noloadloss=0.2 %imag=0.5 ppm_antifloat=1 kvs=[7.2 0.12 0.12]
new Transformer.t28121587a phases=1 windings=3 buses=[l2860477.1, x2860477a.1.0, x2860477a.0.2, ] conns=[wye, wye, wye, ] kvs=[7.2, 0.12, 0.12, ] kvas=[15, 15, 15, ] taps=[1, 1, 1, ] %rs=[0.6, 1.2, 1.2, ] xhl=2.04 xht=2.04 xlt=1.36 %noloadloss=0.2 %imag=0.5 ppm_antifloat=1 kvs=[7.2 0.12 0.12]
new Transformer.t2224230689c phases=1 windings=3 buses=[l3645811.3, x3645811c.1.0, x3645811c.0.2, ] conns=[wye, wye, wye, ] kvs=[7.2, 0.12, 0.12, ] kvas=[75, 75, 75, ] taps=[1, 1, 1, ] %rs=[0.6, 1.2, 1.2, ] xhl=2.04 xht=2.04 xlt=1.36 %noloadloss=0.2 %imag=0.5 ppm_antifloat=1 kvs=[7.2 0.12 0.12]
new Transformer.t227734175b phases=1 windings=3 buses=[l3102793.2, x3102793b.1.0, x3102793b.0.2, ] conns=[wye, wye, wye, ] kvs=[7.2, 0.12, 0.12, ] kvas=[25, 25, 25, ] taps=[1, 1, 1, ] %rs=[0.6, 1.2, 1.2, ] xhl=2.04 xht=2.04 xlt=1.36 %noloadloss=0.2 %imag=0.5 ppm_antifloat=1 kvs=[7.2 0.12 0.12]
new Transformer.t5337694b phases=1 windings=3 buses=[l2991910.2, x2991910b.1.0, x2991910b.0.2, ] conns=[wye, wye, wye, ] kvs=[7.2, 0.12, 0.12, ] kvas=[15, 15, 15, ] taps=[1, 1, 1, ] %rs=[0.6, 1.2, 1.2, ] xhl=2.04 xht=2.04 xlt=1.36 %noloadloss=0.2 %imag=0.5 ppm_antifloat=1 kvs=[7.2 0.12 0.12]
new Transformer.t21357515a phases=1 windings=3 buses=[l2710511.1, x2710511a.1.0, x2710511a.0.2, ] conns=[wye, wye, wye, ] kvs=[7.2, 0.12, 0.12, ] kvas=[25, 25, 25, ] taps=[1, 1, 1, ] %rs=[0.6, 1.2, 1.2, ] xhl=2.04 xht=2.04 xlt=1.36 %noloadloss=0.2 %imag=0.5 ppm_antifloat=1 kvs=[7.2 0.12 0.12]
new Transformer.t28127390c phases=1 windings=3 buses=[l2860486.3, x2860486c.1.0, x2860486c.0.2, ] conns=[wye, wye, wye, ] kvs=[7.2, 0.12, 0.12, ] kvas=[15, 15, 15, ] taps=[1, 1, 1, ] %rs=[0.6, 1.2, 1.2, ] xhl=2.04 xht=2.04 xlt=1.36 %noloadloss=0.2 %imag=0.5 ppm_antifloat=1 kvs=[7.2 0.12 0.12]
new Transformer.t21387929c phases=1 windings=3 buses=[l2935551.3, x2935551c.1.0, x2935551c.0.2, ] conns=[wye, wye, wye, ] kvs=[7.2, 0.12, 0.12, ] kvas=[15, 15, 15, ] taps=[1, 1, 1, ] %rs=[0.6, 1.2, 1.2, ] xhl=2.04 xht=2.04 xlt=1.36 %noloadloss=0.2 %imag=0.5 ppm_antifloat=1 kvs=[7.2 0.12 0.12]
new Transformer.t5355605b phases=1 windings=3 buses=[l2729409.2, x2729409b.1.0, x2729409b.0.2, ] conns=[wye, wye, wye, ] kvs=[7.2, 0.12, 0.12, ] kvas=[25, 25, 25, ] taps=[1, 1, 1, ] %rs=[0.6, 1.2, 1.2, ] xhl=2.04 xht=2.04 xlt=1.36 %noloadloss=0.2 %imag=0.5 ppm_antifloat=1 kvs=[7.2 0.12 0.12]
new Transformer.t5260630b phases=1 windings=3 buses=[l2973833.2, x2973833b.1.0, x2973833b.0.2, ] conns=[wye, wye, wye, ] kvs=[7.2, 0.12, 0.12, ] kvas=[15, 15, 15, ] taps=[1, 1, 1, ] %rs=[0.6, 1.2, 1.2, ] xhl=2.04 xht=2.04 xlt=1.36 %noloadloss=0.2 %imag=0.5 ppm_antifloat=1 kvs=[7.2 0.12 0.12]
new Transformer.t5337660c phases=1 windings=3 buses=[l2897769.3, x2897769c.1.0, x2897769c.0.2, ] conns=[wye, wye, wye, ] kvs=[7.2, 0.12, 0.12, ] kvas=[25, 25, 25, ] taps=[1, 1, 1, ] %rs=[0.6, 1.2, 1.2, ] xhl=2.04 xht=2.04 xlt=1.36 %noloadloss=0.2 %imag=0.5 ppm_antifloat=1 kvs=[7.2 0.12 0.12]
new Transformer.t5293663c phases=1 windings=3 buses=[l3216368.3, x3216368c.1.0, x3216368c.0.2, ] conns=[wye, wye, wye, ] kvs=[7.2, 0.12, 0.12, ] kvas=[15, 15, 15, ] taps=[1, 1, 1, ] %rs=[0.6, 1.2, 1.2, ] xhl=2.04 xht=2.04 xlt=1.36 %noloadloss=0.2 %imag=0.5 ppm_antifloat=1 kvs=[7.2 0.12 0.12]
new Transformer.t5138719a phases=1 windings=3 buses=[l2860490.1, x2860490a.1.0, x2860490a.0.2, ] conns=[wye, wye, wye, ] kvs=[7.2, 0.12, 0.12, ] kvas=[25, 25, 25, ] taps=[1, 1, 1, ] %rs=[0.6, 1.2, 1.2, ] xhl=2.04 xht=2.04 xlt=1.36 %noloadloss=0.2 %imag=0.5 ppm_antifloat=1 kvs=[7.2 0.12 0.12]
new Transformer.t5251858c phases=1 windings=3 buses=[l2861158.3, x2861158c.1.0, x2861158c.0.2, ] conns=[wye, wye, wye, ] kvs=[7.2, 0.12, 0.12, ] kvas=[25, 25, 25, ] taps=[1, 1, 1, ] %rs=[0.6, 1.2, 1.2, ] xhl=2.04 xht=2.04 xlt=1.36 %noloadloss=0.2 %imag=0.5 ppm_antifloat=1 kvs=[7.2 0.12 0.12]
new Transformer.t5302804c phases=1 windings=3 buses=[l3141399.3, x3141399c.1.0, x3141399c.0.2, ] conns=[wye, wye, wye, ] kvs=[7.2, 0.12, 0.12, ] kvas=[37.5, 37.5, 37.5, ] taps=[1, 1, 1, ] %rs=[0.6, 1.2, 1.2, ] xhl=2.04 xht=2.04 xlt=1.36 %noloadloss=0.2 %imag=0.5 ppm_antifloat=1 kvs=[7.2 0.12 0.12]
new Transformer.t5356062b phases=1 windings=3 buses=[l3122816.2, x3122816b.1.0, x3122816b.0.2, ] conns=[wye, wye, wye, ] kvs=[7.2, 0.12, 0.12, ] kvas=[25, 25, 25, ] taps=[1, 1, 1, ] %rs=[0.6, 1.2, 1.2, ] xhl=2.04 xht=2.04 xlt=1.36 %noloadloss=0.2 %imag=0.5 ppm_antifloat=1 kvs=[7.2 0.12 0.12]
new Transformer.t5346639c phases=1 windings=3 buses=[l2992556.3, x2992556c.1.0, x2992556c.0.2, ] conns=[wye, wye, wye, ] kvs=[7.2, 0.12, 0.12, ] kvas=[15, 15, 15, ] taps=[1, 1, 1, ] %rs=[0.6, 1.2, 1.2, ] xhl=2.04 xht=2.04 xlt=1.36 %noloadloss=0.2 %imag=0.5 ppm_antifloat=1 kvs=[7.2 0.12 0.12]
new Transformer.t5302508c phases=1 windings=3 buses=[l2897779.3, x2897779c.1.0, x2897779c.0.2, ] conns=[wye, wye, wye, ] kvs=[7.2, 0.12, 0.12, ] kvas=[25, 25, 25, ] taps=[1, 1, 1, ] %rs=[0.6, 1.2, 1.2, ] xhl=2.04 xht=2.04 xlt=1.36 %noloadloss=0.2 %imag=0.5 ppm_antifloat=1 kvs=[7.2 0.12 0.12]
new Transformer.t5321881a phases=1 windings=3 buses=[l2970811.1, x2970811a.1.0, x2970811a.0.2, ] conns=[wye, wye, wye, ] kvs=[7.2, 0.12, 0.12, ] kvas=[25, 25, 25, ] taps=[1, 1, 1, ] %rs=[0.6, 1.2, 1.2, ] xhl=2.04 xht=2.04 xlt=1.36 %noloadloss=0.2 %imag=0.5 ppm_antifloat=1 kvs=[7.2 0.12 0.12]
new Transformer.t5355433c phases=1 windings=3 buses=[l2991933.3, x2991933c.1.0, x2991933c.0.2, ] conns=[wye, wye, wye, ] kvs=[7.2, 0.12, 0.12, ] kvas=[50, 50, 50, ] taps=[1, 1, 1, ] %rs=[0.6, 1.2, 1.2, ] xhl=2.04 xht=2.04 xlt=1.36 %noloadloss=0.2 %imag=0.5 ppm_antifloat=1 kvs=[7.2 0.12 0.12]
new Transformer.t21398402a phases=1 windings=3 buses=[l2729428.1, x2729428a.1.0, x2729428a.0.2, ] conns=[wye, wye, wye, ] kvs=[7.2, 0.12, 0.12, ] kvas=[15, 15, 15, ] taps=[1, 1, 1, ] %rs=[0.6, 1.2, 1.2, ] xhl=2.04 xht=2.04 xlt=1.36 %noloadloss=0.2 %imag=0.5 ppm_antifloat=1 kvs=[7.2 0.12 0.12]
new Transformer.t21398563a phases=1 windings=3 buses=[l3254216.1, x3254216a.1.0, x3254216a.0.2, ] conns=[wye, wye, wye, ] kvs=[7.2, 0.12, 0.12, ] kvas=[25, 25, 25, ] taps=[1, 1, 1, ] %rs=[0.6, 1.2, 1.2, ] xhl=2.04 xht=2.04 xlt=1.36 %noloadloss=0.2 %imag=0.5 ppm_antifloat=1 kvs=[7.2 0.12 0.12]
new Transformer.t21386771b phases=1 windings=3 buses=[l2897807.2, x2897807b.1.0, x2897807b.0.2, ] conns=[wye, wye, wye, ] kvs=[7.2, 0.12, 0.12, ] kvas=[15, 15, 15, ] taps=[1, 1, 1, ] %rs=[0.6, 1.2, 1.2, ] xhl=2.04 xht=2.04 xlt=1.36 %noloadloss=0.2 %imag=0.5 ppm_antifloat=1 kvs=[7.2 0.12 0.12]
new Transformer.t5260648a phases=1 windings=3 buses=[l2898522.1, x2898522a.1.0, x2898522a.0.2, ] conns=[wye, wye, wye, ] kvs=[7.2, 0.12, 0.12, ] kvas=[25, 25, 25, ] taps=[1, 1, 1, ] %rs=[0.6, 1.2, 1.2, ] xhl=2.04 xht=2.04 xlt=1.36 %noloadloss=0.2 %imag=0.5 ppm_antifloat=1 kvs=[7.2 0.12 0.12]
new Transformer.t5293490c phases=1 windings=3 buses=[l3048230.3, x3048230c.1.0, x3048230c.0.2, ] conns=[wye, wye, wye, ] kvs=[7.2, 0.12, 0.12, ] kvas=[25, 25, 25, ] taps=[1, 1, 1, ] %rs=[0.6, 1.2, 1.2, ] xhl=2.04 xht=2.04 xlt=1.36 %noloadloss=0.2 %imag=0.5 ppm_antifloat=1 kvs=[7.2 0.12 0.12]
new Transformer.t225901711a phases=1 windings=3 buses=[l3195327.1, x3195327a.1.0, x3195327a.0.2, ] conns=[wye, wye, wye, ] kvs=[7.2, 0.12, 0.12, ] kvas=[15, 15, 15, ] taps=[1, 1, 1, ] %rs=[0.6, 1.2, 1.2, ] xhl=2.04 xht=2.04 xlt=1.36 %noloadloss=0.2 %imag=0.5 ppm_antifloat=1 kvs=[7.2 0.12 0.12]
new Transformer.t227902981a phases=1 windings=3 buses=[l3047058.1, x3047058a.1.0, x3047058a.0.2, ] conns=[wye, wye, wye, ] kvs=[7.2, 0.12, 0.12, ] kvas=[37.5, 37.5, 37.5, ] taps=[1, 1, 1, ] %rs=[0.6, 1.2, 1.2, ] xhl=2.04 xht=2.04 xlt=1.36 %noloadloss=0.2 %imag=0.5 ppm_antifloat=1 kvs=[7.2 0.12 0.12]
new Transformer.t5321853b phases=1 windings=3 buses=[l2673313.2, x2673313b.1.0, x2673313b.0.2, ] conns=[wye, wye, wye, ] kvs=[7.2, 0.12, 0.12, ] kvas=[25, 25, 25, ] taps=[1, 1, 1, ] %rs=[0.6, 1.2, 1.2, ] xhl=2.04 xht=2.04 xlt=1.36 %noloadloss=0.2 %imag=0.5 ppm_antifloat=1 kvs=[7.2 0.12 0.12]
new Transformer.t2224237653a phases=1 windings=3 buses=[l3649302.1, x3649302a.1.0, x3649302a.0.2, ] conns=[wye, wye, wye, ] kvs=[7.2, 0.12, 0.12, ] kvas=[37.5, 37.5, 37.5, ] taps=[1, 1, 1, ] %rs=[0.6, 1.2, 1.2, ] xhl=2.04 xht=2.04 xlt=1.36 %noloadloss=0.2 %imag=0.5 ppm_antifloat=1 kvs=[7.2 0.12 0.12]
new Transformer.t2224386592a phases=1 windings=3 buses=[l3729297.1, x3729297a.1.0, x3729297a.0.2, ] conns=[wye, wye, wye, ] kvs=[7.2, 0.12, 0.12, ] kvas=[25, 25, 25, ] taps=[1, 1, 1, ] %rs=[0.6, 1.2, 1.2, ] xhl=2.04 xht=2.04 xlt=1.36 %noloadloss=0.2 %imag=0.5 ppm_antifloat=1 kvs=[7.2 0.12 0.12]
new Transformer.t5391990a phases=1 windings=3 buses=[l2858163.1, x2858163a.1.0, x2858163a.0.2, ] conns=[wye, wye, wye, ] kvs=[7.2, 0.12, 0.12, ] kvas=[15, 15, 15, ] taps=[1, 1, 1, ] %rs=[0.6, 1.2, 1.2, ] xhl=2.04 xht=2.04 xlt=1.36 %noloadloss=0.2 %imag=0.5 ppm_antifloat=1 kvs=[7.2 0.12 0.12]
new Transformer.t226881057b phases=1 windings=3 buses=[l3214112.2, x3214112b.1.0, x3214112b.0.2, ] conns=[wye, wye, wye, ] kvs=[7.2, 0.12, 0.12, ] kvas=[15, 15, 15, ] taps=[1, 1, 1, ] %rs=[0.6, 1.2, 1.2, ] xhl=2.04 xht=2.04 xlt=1.36 %noloadloss=0.2 %imag=0.5 ppm_antifloat=1 kvs=[7.2 0.12 0.12]
new Transformer.t225533531a phases=1 windings=3 buses=[l2685805.1, x2685805a.1.0, x2685805a.0.2, ] conns=[wye, wye, wye, ] kvs=[7.2, 0.12, 0.12, ] kvas=[25, 25, 25, ] taps=[1, 1, 1, ] %rs=[0.6, 1.2, 1.2, ] xhl=2.04 xht=2.04 xlt=1.36 %noloadloss=0.2 %imag=0.5 ppm_antifloat=1 kvs=[7.2 0.12 0.12]
new Transformer.t5247056a phases=1 windings=3 buses=[l2991912.1, x2991912a.1.0, x2991912a.0.2, ] conns=[wye, wye, wye, ] kvs=[7.2, 0.12, 0.12, ] kvas=[15, 15, 15, ] taps=[1, 1, 1, ] %rs=[0.6, 1.2, 1.2, ] xhl=2.04 xht=2.04 xlt=1.36 %noloadloss=0.2 %imag=0.5 ppm_antifloat=1 kvs=[7.2 0.12 0.12]
new Transformer.t227905262a phases=1 windings=3 buses=[l3140238.1, x3140238a.1.0, x3140238a.0.2, ] conns=[wye, wye, wye, ] kvs=[7.2, 0.12, 0.12, ] kvas=[25, 25, 25, ] taps=[1, 1, 1, ] %rs=[0.6, 1.2, 1.2, ] xhl=2.04 xht=2.04 xlt=1.36 %noloadloss=0.2 %imag=0.5 ppm_antifloat=1 kvs=[7.2 0.12 0.12]
new Transformer.t21469960b phases=1 windings=3 buses=[l3066830.2, x3066830b.1.0, x3066830b.0.2, ] conns=[wye, wye, wye, ] kvs=[7.2, 0.12, 0.12, ] kvas=[25, 25, 25, ] taps=[1, 1, 1, ] %rs=[0.6, 1.2, 1.2, ] xhl=2.04 xht=2.04 xlt=1.36 %noloadloss=0.2 %imag=0.5 ppm_antifloat=1 kvs=[7.2 0.12 0.12]
new Transformer.t5260511c phases=1 windings=3 buses=[l3160878.3, x3160878c.1.0, x3160878c.0.2, ] conns=[wye, wye, wye, ] kvs=[7.2, 0.12, 0.12, ] kvas=[15, 15, 15, ] taps=[1, 1, 1, ] %rs=[0.6, 1.2, 1.2, ] xhl=2.04 xht=2.04 xlt=1.36 %noloadloss=0.2 %imag=0.5 ppm_antifloat=1 kvs=[7.2 0.12 0.12]
new Transformer.t5138346c phases=1 windings=3 buses=[l2916609.3, x2916609c.1.0, x2916609c.0.2, ] conns=[wye, wye, wye, ] kvs=[7.2, 0.12, 0.12, ] kvas=[15, 15, 15, ] taps=[1, 1, 1, ] %rs=[0.6, 1.2, 1.2, ] xhl=2.04 xht=2.04 xlt=1.36 %noloadloss=0.2 %imag=0.5 ppm_antifloat=1 kvs=[7.2 0.12 0.12]
new Transformer.t225806974a phases=1 windings=3 buses=[l2876814.1, x2876814a.1.0, x2876814a.0.2, ] conns=[wye, wye, wye, ] kvs=[7.2, 0.12, 0.12, ] kvas=[10, 10, 10, ] taps=[1, 1, 1, ] %rs=[0.6, 1.2, 1.2, ] xhl=2.04 xht=2.04 xlt=1.36 %noloadloss=0.2 %imag=0.5 ppm_antifloat=1 kvs=[7.2 0.12 0.12]
new Transformer.t5355944b phases=1 windings=3 buses=[l3197646.2, x3197646b.1.0, x3197646b.0.2, ] conns=[wye, wye, wye, ] kvs=[7.2, 0.12, 0.12, ] kvas=[25, 25, 25, ] taps=[1, 1, 1, ] %rs=[0.6, 1.2, 1.2, ] xhl=2.04 xht=2.04 xlt=1.36 %noloadloss=0.2 %imag=0.5 ppm_antifloat=1 kvs=[7.2 0.12 0.12]
new Transformer.t5138569a phases=1 windings=3 buses=[l2973151.1, x2973151a.1.0, x2973151a.0.2, ] conns=[wye, wye, wye, ] kvs=[7.2, 0.12, 0.12, ] kvas=[15, 15, 15, ] taps=[1, 1, 1, ] %rs=[0.6, 1.2, 1.2, ] xhl=2.04 xht=2.04 xlt=1.36 %noloadloss=0.2 %imag=0.5 ppm_antifloat=1 kvs=[7.2 0.12 0.12]
new Transformer.t5337625c phases=1 windings=3 buses=[l3197627.3, x3197627c.1.0, x3197627c.0.2, ] conns=[wye, wye, wye, ] kvs=[7.2, 0.12, 0.12, ] kvas=[25, 25, 25, ] taps=[1, 1, 1, ] %rs=[0.6, 1.2, 1.2, ] xhl=2.04 xht=2.04 xlt=1.36 %noloadloss=0.2 %imag=0.5 ppm_antifloat=1 kvs=[7.2 0.12 0.12]
new Transformer.t5321874a phases=1 windings=3 buses=[l2764412.1, x2764412a.1.0, x2764412a.0.2, ] conns=[wye, wye, wye, ] kvs=[7.2, 0.12, 0.12, ] kvas=[25, 25, 25, ] taps=[1, 1, 1, ] %rs=[0.6, 1.2, 1.2, ] xhl=2.04 xht=2.04 xlt=1.36 %noloadloss=0.2 %imag=0.5 ppm_antifloat=1 kvs=[7.2 0.12 0.12]
new Transformer.t5337713c phases=1 windings=3 buses=[l2766716.3, x2766716c.1.0, x2766716c.0.2, ] conns=[wye, wye, wye, ] kvs=[7.2, 0.12, 0.12, ] kvas=[15, 15, 15, ] taps=[1, 1, 1, ] %rs=[0.6, 1.2, 1.2, ] xhl=2.04 xht=2.04 xlt=1.36 %noloadloss=0.2 %imag=0.5 ppm_antifloat=1 kvs=[7.2 0.12 0.12]
new Transformer.t5391757b phases=1 windings=3 buses=[l2991917.2, x2991917b.1.0, x2991917b.0.2, ] conns=[wye, wye, wye, ] kvs=[7.2, 0.12, 0.12, ] kvas=[10, 10, 10, ] taps=[1, 1, 1, ] %rs=[0.6, 1.2, 1.2, ] xhl=2.04 xht=2.04 xlt=1.36 %noloadloss=0.2 %imag=0.5 ppm_antifloat=1 kvs=[7.2 0.12 0.12]
new Transformer.t5338998b phases=1 windings=3 buses=[l3254229.2, x3254229b.1.0, x3254229b.0.2, ] conns=[wye, wye, wye, ] kvs=[7.2, 0.12, 0.12, ] kvas=[25, 25, 25, ] taps=[1, 1, 1, ] %rs=[0.6, 1.2, 1.2, ] xhl=2.04 xht=2.04 xlt=1.36 %noloadloss=0.2 %imag=0.5 ppm_antifloat=1 kvs=[7.2 0.12 0.12]
new Transformer.t5356064b phases=1 windings=3 buses=[l2935556.2, x2935556b.1.0, x2935556b.0.2, ] conns=[wye, wye, wye, ] kvs=[7.2, 0.12, 0.12, ] kvas=[25, 25, 25, ] taps=[1, 1, 1, ] %rs=[0.6, 1.2, 1.2, ] xhl=2.04 xht=2.04 xlt=1.36 %noloadloss=0.2 %imag=0.5 ppm_antifloat=1 kvs=[7.2 0.12 0.12]
new Transformer.t5323275b phases=1 windings=3 buses=[l3197660.2, x3197660b.1.0, x3197660b.0.2, ] conns=[wye, wye, wye, ] kvs=[7.2, 0.12, 0.12, ] kvas=[25, 25, 25, ] taps=[1, 1, 1, ] %rs=[0.6, 1.2, 1.2, ] xhl=2.04 xht=2.04 xlt=1.36 %noloadloss=0.2 %imag=0.5 ppm_antifloat=1 kvs=[7.2 0.12 0.12]
new Transformer.t21389237a phases=1 windings=3 buses=[l2989565.1, x2989565a.1.0, x2989565a.0.2, ] conns=[wye, wye, wye, ] kvs=[7.2, 0.12, 0.12, ] kvas=[25, 25, 25, ] taps=[1, 1, 1, ] %rs=[0.6, 1.2, 1.2, ] xhl=2.04 xht=2.04 xlt=1.36 %noloadloss=0.2 %imag=0.5 ppm_antifloat=1 kvs=[7.2 0.12 0.12]
new Transformer.t2224230615c phases=1 windings=3 buses=[l3645809.3, x3645809c.1.0, x3645809c.0.2, ] conns=[wye, wye, wye, ] kvs=[7.2, 0.12, 0.12, ] kvas=[50, 50, 50, ] taps=[1, 1, 1, ] %rs=[0.6, 1.2, 1.2, ] xhl=2.04 xht=2.04 xlt=1.36 %noloadloss=0.2 %imag=0.5 ppm_antifloat=1 kvs=[7.2 0.12 0.12]
new Transformer.t5260463b phases=1 windings=3 buses=[l3086075.2, x3086075b.1.0, x3086075b.0.2, ] conns=[wye, wye, wye, ] kvs=[7.2, 0.12, 0.12, ] kvas=[15, 15, 15, ] taps=[1, 1, 1, ] %rs=[0.6, 1.2, 1.2, ] xhl=2.04 xht=2.04 xlt=1.36 %noloadloss=0.2 %imag=0.5 ppm_antifloat=1 kvs=[7.2 0.12 0.12]
new Transformer.t5302402a phases=1 windings=3 buses=[l3122824.1, x3122824a.1.0, x3122824a.0.2, ] conns=[wye, wye, wye, ] kvs=[7.2, 0.12, 0.12, ] kvas=[15, 15, 15, ] taps=[1, 1, 1, ] %rs=[0.6, 1.2, 1.2, ] xhl=2.04 xht=2.04 xlt=1.36 %noloadloss=0.2 %imag=0.5 ppm_antifloat=1 kvs=[7.2 0.12 0.12]
new Transformer.t5355599b phases=1 windings=3 buses=[l3216338.2, x3216338b.1.0, x3216338b.0.2, ] conns=[wye, wye, wye, ] kvs=[7.2, 0.12, 0.12, ] kvas=[25, 25, 25, ] taps=[1, 1, 1, ] %rs=[0.6, 1.2, 1.2, ] xhl=2.04 xht=2.04 xlt=1.36 %noloadloss=0.2 %imag=0.5 ppm_antifloat=1 kvs=[7.2 0.12 0.12]
new Transformer.t21393412b phases=1 windings=3 buses=[l2729405.2, x2729405b.1.0, x2729405b.0.2, ] conns=[wye, wye, wye, ] kvs=[7.2, 0.12, 0.12, ] kvas=[25, 25, 25, ] taps=[1, 1, 1, ] %rs=[0.6, 1.2, 1.2, ] xhl=2.04 xht=2.04 xlt=1.36 %noloadloss=0.2 %imag=0.5 ppm_antifloat=1 kvs=[7.2 0.12 0.12]
new Transformer.t5356807a phases=1 windings=3 buses=[l2823545.1, x2823545a.1.0, x2823545a.0.2, ] conns=[wye, wye, wye, ] kvs=[7.2, 0.12, 0.12, ] kvas=[25, 25, 25, ] taps=[1, 1, 1, ] %rs=[0.6, 1.2, 1.2, ] xhl=2.04 xht=2.04 xlt=1.36 %noloadloss=0.2 %imag=0.5 ppm_antifloat=1 kvs=[7.2 0.12 0.12]
new Transformer.t5293660b phases=1 windings=3 buses=[l2916610.2, x2916610b.1.0, x2916610b.0.2, ] conns=[wye, wye, wye, ] kvs=[7.2, 0.12, 0.12, ] kvas=[25, 25, 25, ] taps=[1, 1, 1, ] %rs=[0.6, 1.2, 1.2, ] xhl=2.04 xht=2.04 xlt=1.36 %noloadloss=0.2 %imag=0.5 ppm_antifloat=1 kvs=[7.2 0.12 0.12]
new Transformer.t227731863a phases=1 windings=3 buses=[l3177665.1, x3177665a.1.0, x3177665a.0.2, ] conns=[wye, wye, wye, ] kvs=[7.2, 0.12, 0.12, ] kvas=[37.5, 37.5, 37.5, ] taps=[1, 1, 1, ] %rs=[0.6, 1.2, 1.2, ] xhl=2.04 xht=2.04 xlt=1.36 %noloadloss=0.2 %imag=0.5 ppm_antifloat=1 kvs=[7.2 0.12 0.12]
new Transformer.t227760021a phases=1 windings=3 buses=[l2803199.1, x2803199a.1.0, x2803199a.0.2, ] conns=[wye, wye, wye, ] kvs=[7.2, 0.12, 0.12, ] kvas=[50, 50, 50, ] taps=[1, 1, 1, ] %rs=[0.6, 1.2, 1.2, ] xhl=2.04 xht=2.04 xlt=1.36 %noloadloss=0.2 %imag=0.5 ppm_antifloat=1 kvs=[7.2 0.12 0.12]
new Transformer.t227760021b phases=1 windings=3 buses=[l2803199.2, x2803199b.1.0, x2803199b.0.2, ] conns=[wye, wye, wye, ] kvs=[7.2, 0.12, 0.12, ] kvas=[50, 50, 50, ] taps=[1, 1, 1, ] %rs=[0.6, 1.2, 1.2, ] xhl=2.04 xht=2.04 xlt=1.36 %noloadloss=0.2 %imag=0.5 ppm_antifloat=1 kvs=[7.2 0.12 0.12]
new Transformer.t227760021c phases=1 windings=3 buses=[l2803199.3, x2803199c.1.0, x2803199c.0.2, ] conns=[wye, wye, wye, ] kvs=[7.2, 0.12, 0.12, ] kvas=[50, 50, 50, ] taps=[1, 1, 1, ] %rs=[0.6, 1.2, 1.2, ] xhl=2.04 xht=2.04 xlt=1.36 %noloadloss=0.2 %imag=0.5 ppm_antifloat=1 kvs=[7.2 0.12 0.12]
new Transformer.t5391980a phases=1 windings=3 buses=[l2691952.1, x2691952a.1.0, x2691952a.0.2, ] conns=[wye, wye, wye, ] kvs=[7.2, 0.12, 0.12, ] kvas=[15, 15, 15, ] taps=[1, 1, 1, ] %rs=[0.6, 1.2, 1.2, ] xhl=2.04 xht=2.04 xlt=1.36 %noloadloss=0.2 %imag=0.5 ppm_antifloat=1 kvs=[7.2 0.12 0.12]
new Transformer.t5338984a phases=1 windings=3 buses=[l2748144.1, x2748144a.1.0, x2748144a.0.2, ] conns=[wye, wye, wye, ] kvs=[7.2, 0.12, 0.12, ] kvas=[25, 25, 25, ] taps=[1, 1, 1, ] %rs=[0.6, 1.2, 1.2, ] xhl=2.04 xht=2.04 xlt=1.36 %noloadloss=0.2 %imag=0.5 ppm_antifloat=1 kvs=[7.2 0.12 0.12]
new Transformer.t5337702b phases=1 windings=3 buses=[l3029504.2, x3029504b.1.0, x3029504b.0.2, ] conns=[wye, wye, wye, ] kvs=[7.2, 0.12, 0.12, ] kvas=[25, 25, 25, ] taps=[1, 1, 1, ] %rs=[0.6, 1.2, 1.2, ] xhl=2.04 xht=2.04 xlt=1.36 %noloadloss=0.2 %imag=0.5 ppm_antifloat=1 kvs=[7.2 0.12 0.12]
new Transformer.t5337696b phases=1 windings=3 buses=[l3197635.2, x3197635b.1.0, x3197635b.0.2, ] conns=[wye, wye, wye, ] kvs=[7.2, 0.12, 0.12, ] kvas=[15, 15, 15, ] taps=[1, 1, 1, ] %rs=[0.6, 1.2, 1.2, ] xhl=2.04 xht=2.04 xlt=1.36 %noloadloss=0.2 %imag=0.5 ppm_antifloat=1 kvs=[7.2 0.12 0.12]
...
